
  Mrv1925 04172511352D          

 17 19  0  0  1  0            999 V2000
    3.2789    2.0625    0.0000 O   0  0  0  0  0  0  0  0  0  0  0  0
    3.2789    1.2375    0.0000 C   0  0  0  0  0  0  0  0  0  0  0  0
    3.9934    0.8250    0.0000 N   0  0  0  0  0  0  0  0  0  0  0  0
    3.9934    0.0000    0.0000 C   0  0  0  0  0  0  0  0  0  0  0  0
    3.2789   -0.4125    0.0000 N   0  0  0  0  0  0  0  0  0  0  0  0
    2.5645    0.0000    0.0000 C   0  0  0  0  0  0  0  0  0  0  0  0
    2.5645    0.8250    0.0000 C   0  0  0  0  0  0  0  0  0  0  0  0
    1.7798    1.0799    0.0000 N   0  0  0  0  0  0  0  0  0  0  0  0
    1.2949    0.4125    0.0000 C   0  0  0  0  0  0  0  0  0  0  0  0
    1.7798   -0.2549    0.0000 N   0  0  0  0  0  0  0  0  0  0  0  0
    1.5249   -1.0396    0.0000 C   0  0  1  0  0  0  0  0  0  0  0  0
    2.0098   -1.7070    0.0000 C   0  0  0  0  0  0  0  0  0  0  0  0
    1.5249   -2.3744    0.0000 C   0  0  0  0  0  0  0  0  0  0  0  0
    0.7403   -2.1195    0.0000 C   0  0  1  0  0  0  0  0  0  0  0  0
    0.0728   -2.6044    0.0000 C   0  0  0  0  0  0  0  0  0  0  0  0
    0.1591   -3.4249    0.0000 O   0  0  0  0  0  0  0  0  0  0  0  0
    0.7403   -1.2945    0.0000 O   0  0  0  0  0  0  0  0  0  0  0  0
  1  2  2  0  0  0  0
  2  3  1  0  0  0  0
  3  4  1  0  0  0  0
  4  5  2  0  0  0  0
  5  6  1  0  0  0  0
  6  7  2  0  0  0  0
  2  7  1  0  0  0  0
  7  8  1  0  0  0  0
  8  9  2  0  0  0  0
  9 10  1  0  0  0  0
  6 10  1  0  0  0  0
 11 10  1  1  0  0  0
 11 12  1  0  0  0  0
 12 13  1  0  0  0  0
 14 13  1  0  0  0  0
 14 15  1  1  0  0  0
 15 16  1  0  0  0  0
 14 17  1  0  0  0  0
 11 17  1  0  0  0  0
M  END
>  <Catalog ID>
Z1546616193

>  <Plate_ID>
2026983-X50-01

>  <Well>
A02

>  <V, µL>
50

>  <Conc, mM>
10

>  <Formula>
C10H12N4O3

>  <MW>
236.2273

>  <Purity>
100

>  <PO>
5A-64168

>  <MW_salt>
0

>  <Stereochem.data>
Single known enantiomer

>  <Geometric.isomer>
None

>  <Chemical name>
9-[(2R,5S)-5-(hydroxymethyl)oxolan-2-yl]-6,9-dihydro-1H-purin-6-one

>  <ClogP>
-1,924

>  <logS>
-0,99

>  <HBD>
2

>  <HBA>
5

>  <TPSA>
88,74

>  <RotBonds>
2

$$$$

  Mrv1925 04172511352D          

 25 26  0  0  1  0            999 V2000
    2.1434   -5.3625    0.0000 C   0  0  0  0  0  0  0  0  0  0  0  0
    2.8579   -4.9500    0.0000 C   0  0  0  0  0  0  0  0  0  0  0  0
    3.5724   -5.3625    0.0000 C   0  0  0  0  0  0  0  0  0  0  0  0
    4.2868   -4.9500    0.0000 C   0  0  0  0  0  0  0  0  0  0  0  0
    5.0013   -5.3625    0.0000 C   0  0  0  0  0  0  0  0  0  0  0  0
    5.7158   -4.9500    0.0000 O   0  0  0  0  0  0  0  0  0  0  0  0
    6.4302   -5.3625    0.0000 C   0  0  0  0  0  0  0  0  0  0  0  0
    6.4302   -6.1875    0.0000 O   0  0  0  0  0  0  0  0  0  0  0  0
    7.1447   -4.9500    0.0000 N   0  0  0  0  0  0  0  0  0  0  0  0
    7.8592   -5.3625    0.0000 C   0  0  0  0  0  0  0  0  0  0  0  0
    8.5737   -4.9500    0.0000 N   0  0  0  0  0  0  0  0  0  0  0  0
    9.2881   -5.3625    0.0000 C   0  0  0  0  0  0  0  0  0  0  0  0
   10.0026   -4.9500    0.0000 O   0  0  0  0  0  0  0  0  0  0  0  0
    9.2881   -6.1875    0.0000 N   0  0  0  0  0  0  0  0  0  0  0  0
    8.5737   -6.6000    0.0000 C   0  0  0  0  0  0  0  0  0  0  0  0
    7.8592   -6.1875    0.0000 C   0  0  0  0  0  0  0  0  0  0  0  0
    7.1447   -6.6000    0.0000 F   0  0  0  0  0  0  0  0  0  0  0  0
   10.0026   -6.6000    0.0000 C   0  0  2  0  0  0  0  0  0  0  0  0
   10.7563   -6.2644    0.0000 O   0  0  0  0  0  0  0  0  0  0  0  0
   11.3083   -6.8775    0.0000 C   0  0  2  0  0  0  0  0  0  0  0  0
   12.1288   -6.7913    0.0000 C   0  0  0  0  0  0  0  0  0  0  0  0
   10.8958   -7.5920    0.0000 C   0  0  1  0  0  0  0  0  0  0  0  0
   11.2314   -8.3457    0.0000 O   0  0  0  0  0  0  0  0  0  0  0  0
   10.0888   -7.4205    0.0000 C   0  0  1  0  0  0  0  0  0  0  0  0
    9.4757   -7.9725    0.0000 O   0  0  0  0  0  0  0  0  0  0  0  0
  1  2  1  0  0  0  0
  2  3  1  0  0  0  0
  3  4  1  0  0  0  0
  4  5  1  0  0  0  0
  5  6  1  0  0  0  0
  6  7  1  0  0  0  0
  7  8  2  0  0  0  0
  7  9  1  0  0  0  0
  9 10  1  0  0  0  0
 10 11  2  0  0  0  0
 11 12  1  0  0  0  0
 12 13  2  0  0  0  0
 12 14  1  0  0  0  0
 14 15  1  0  0  0  0
 15 16  2  0  0  0  0
 10 16  1  0  0  0  0
 16 17  1  0  0  0  0
 18 14  1  6  0  0  0
 18 19  1  0  0  0  0
 20 19  1  0  0  0  0
 20 21  1  6  0  0  0
 22 20  1  0  0  0  0
 22 23  1  1  0  0  0
 22 24  1  0  0  0  0
 24 18  1  0  0  0  0
 24 25  1  1  0  0  0
M  END
>  <Catalog ID>
Z1501480421

>  <Plate_ID>
2026983-X50-01

>  <Well>
B02

>  <V, µL>
50

>  <Conc, mM>
10

>  <Formula>
C15H22FN3O6

>  <MW>
359.3501

>  <Purity>
100

>  <PO>
5A-64168

>  <MW_salt>
0

>  <Stereochem.data>
Single known enantiomer

>  <Geometric.isomer>
None

>  <Chemical name>
pentyl N-{1-[(2R,3R,4S,5R)-3,4-dihydroxy-5-methyloxolan-2-yl]-5-fluoro-2-oxo-1,2-dihydropyrimidin-4-yl}carbamate

>  <ClogP>
0,841

>  <logS>
-3,1

>  <HBD>
3

>  <HBA>
6

>  <TPSA>
120,69

>  <RotBonds>
7

$$$$

  Mrv1925 04172511352D          

 28 31  0  0  0  0            999 V2000
    0.0000   -2.4750    0.0000 O   0  0  0  0  0  0  0  0  0  0  0  0
    0.7145   -2.8875    0.0000 C   0  0  0  0  0  0  0  0  0  0  0  0
    0.7145   -3.7125    0.0000 C   0  0  0  0  0  0  0  0  0  0  0  0
    0.0000   -4.1250    0.0000 N   0  0  0  0  0  0  0  0  0  0  0  0
    0.0000   -4.9500    0.0000 C   0  0  0  0  0  0  0  0  0  0  0  0
    0.7145   -5.3625    0.0000 O   0  0  0  0  0  0  0  0  0  0  0  0
   -0.7145   -5.3625    0.0000 C   0  0  0  0  0  0  0  0  0  0  0  0
   -0.7145   -6.1875    0.0000 F   0  0  0  0  0  0  0  0  0  0  0  0
   -1.4289   -4.9500    0.0000 C   0  0  0  0  0  0  0  0  0  0  0  0
   -1.4289   -4.1250    0.0000 N   0  0  0  0  0  0  0  0  0  0  0  0
   -0.7145   -3.7125    0.0000 C   0  0  0  0  0  0  0  0  0  0  0  0
   -0.7145   -2.8875    0.0000 O   0  0  0  0  0  0  0  0  0  0  0  0
   -2.1434   -3.7125    0.0000 C   0  0  0  0  0  0  0  0  0  0  0  0
   -2.8971   -4.0481    0.0000 C   0  0  0  0  0  0  0  0  0  0  0  0
   -3.4491   -3.4350    0.0000 C   0  0  0  0  0  0  0  0  0  0  0  0
   -3.0366   -2.7205    0.0000 C   0  0  0  0  0  0  0  0  0  0  0  0
   -2.2296   -2.8920    0.0000 O   0  0  0  0  0  0  0  0  0  0  0  0
    1.4289   -2.4750    0.0000 N   0  0  0  0  0  0  0  0  0  0  0  0
    1.4289   -1.6500    0.0000 C   0  0  0  0  0  0  0  0  0  0  0  0
    0.7145   -1.2375    0.0000 C   0  0  0  0  0  0  0  0  0  0  0  0
    0.7145   -0.4125    0.0000 C   0  0  0  0  0  0  0  0  0  0  0  0
    1.4289    0.0000    0.0000 C   0  0  0  0  0  0  0  0  0  0  0  0
    2.1434   -0.4125    0.0000 C   0  0  0  0  0  0  0  0  0  0  0  0
    2.8579    0.0000    0.0000 C   0  0  0  0  0  0  0  0  0  0  0  0
    3.5724   -0.4125    0.0000 C   0  0  0  0  0  0  0  0  0  0  0  0
    3.5724   -1.2375    0.0000 C   0  0  0  0  0  0  0  0  0  0  0  0
    2.8579   -1.6500    0.0000 C   0  0  0  0  0  0  0  0  0  0  0  0
    2.1434   -1.2375    0.0000 C   0  0  0  0  0  0  0  0  0  0  0  0
  1  2  2  0  0  0  0
  2  3  1  0  0  0  0
  3  4  1  0  0  0  0
  4  5  1  0  0  0  0
  5  6  2  0  0  0  0
  5  7  1  0  0  0  0
  7  8  1  0  0  0  0
  7  9  2  0  0  0  0
  9 10  1  0  0  0  0
 10 11  1  0  0  0  0
  4 11  1  0  0  0  0
 11 12  2  0  0  0  0
 10 13  1  0  0  0  0
 13 14  1  0  0  0  0
 14 15  1  0  0  0  0
 15 16  1  0  0  0  0
 16 17  1  0  0  0  0
 13 17  1  0  0  0  0
  2 18  1  0  0  0  0
 18 19  1  0  0  0  0
 19 20  1  0  0  0  0
 20 21  1  0  0  0  0
 21 22  1  0  0  0  0
 22 23  1  0  0  0  0
 23 24  1  0  0  0  0
 24 25  2  0  0  0  0
 25 26  1  0  0  0  0
 26 27  2  0  0  0  0
 27 28  1  0  0  0  0
 23 28  2  0  0  0  0
 19 28  1  0  0  0  0
M  END
>  <Catalog ID>
Z107296178

>  <Plate_ID>
2026983-X50-01

>  <Well>
C02

>  <V, µL>
50

>  <Conc, mM>
10

>  <Formula>
C20H22FN3O4

>  <MW>
387.4048

>  <Purity>
93.98

>  <PO>
5A-64168

>  <MW_salt>
0

>  <Stereochem.data>
Diastereomeric mixture

>  <Geometric.isomer>
None

>  <Chemical name>
2-[5-fluoro-2,6-dioxo-3-(oxolan-2-yl)-1,2,3,6-tetrahydropyrimidin-1-yl]-N-(1,2,3,4-tetrahydronaphthalen-1-yl)acetamide

>  <ClogP>
3,044

>  <logS>
-3,34

>  <HBD>
1

>  <HBA>
4

>  <TPSA>
78,95

>  <RotBonds>
4

$$$$

  Mrv1925 04172511352D          

 22 24  0  0  0  0            999 V2000
   -3.4482   -1.6099    0.0000 N   0  0  0  0  0  0  0  0  0  0  0  0
   -2.8961   -2.2230    0.0000 C   0  0  0  0  0  0  0  0  0  0  0  0
   -2.3441   -2.8361    0.0000 C   0  0  0  0  0  0  0  0  0  0  0  0
   -1.5371   -2.6646    0.0000 C   0  0  0  0  0  0  0  0  0  0  0  0
   -0.9851   -3.2777    0.0000 N   0  0  0  0  0  0  0  0  0  0  0  0
   -0.1781   -3.1062    0.0000 C   0  0  0  0  0  0  0  0  0  0  0  0
    0.0768   -2.3215    0.0000 C   0  0  0  0  0  0  0  0  0  0  0  0
    0.8838   -2.1500    0.0000 C   0  0  0  0  0  0  0  0  0  0  0  0
    1.1387   -1.3654    0.0000 N   0  0  0  0  0  0  0  0  0  0  0  0
    0.6538   -0.6979    0.0000 C   0  0  0  0  0  0  0  0  0  0  0  0
    1.1387   -0.0305    0.0000 C   0  0  0  0  0  0  0  0  0  0  0  0
    1.9233   -0.2854    0.0000 C   0  0  0  0  0  0  0  0  0  0  0  0
    2.6378    0.1271    0.0000 C   0  0  0  0  0  0  0  0  0  0  0  0
    3.3523   -0.2854    0.0000 C   0  0  0  0  0  0  0  0  0  0  0  0
    3.3523   -1.1104    0.0000 C   0  0  0  0  0  0  0  0  0  0  0  0
    2.6378   -1.5229    0.0000 C   0  0  0  0  0  0  0  0  0  0  0  0
    1.9233   -1.1104    0.0000 C   0  0  0  0  0  0  0  0  0  0  0  0
   -1.2400   -4.0623    0.0000 C   0  0  0  0  0  0  0  0  0  0  0  0
   -0.6880   -4.6754    0.0000 O   0  0  0  0  0  0  0  0  0  0  0  0
   -2.0470   -4.2338    0.0000 N   0  0  0  0  0  0  0  0  0  0  0  0
   -2.5990   -3.6207    0.0000 C   0  0  0  0  0  0  0  0  0  0  0  0
   -3.4060   -3.7923    0.0000 O   0  0  0  0  0  0  0  0  0  0  0  0
  1  2  3  0  0  0  0
  2  3  1  0  0  0  0
  3  4  2  0  0  0  0
  4  5  1  0  0  0  0
  5  6  1  0  0  0  0
  6  7  1  0  0  0  0
  7  8  1  0  0  0  0
  8  9  1  0  0  0  0
  9 10  1  0  0  0  0
 10 11  1  0  0  0  0
 11 12  1  0  0  0  0
 12 13  1  0  0  0  0
 13 14  2  0  0  0  0
 14 15  1  0  0  0  0
 15 16  2  0  0  0  0
 16 17  1  0  0  0  0
 12 17  2  0  0  0  0
  9 17  1  0  0  0  0
  5 18  1  0  0  0  0
 18 19  2  0  0  0  0
 18 20  1  0  0  0  0
 20 21  1  0  0  0  0
  3 21  1  0  0  0  0
 21 22  2  0  0  0  0
M  END
>  <Catalog ID>
Z666561842

>  <Plate_ID>
2026983-X50-01

>  <Well>
D02

>  <V, µL>
50

>  <Conc, mM>
10

>  <Formula>
C16H16N4O2

>  <MW>
296.3238

>  <Purity>
100

>  <PO>
5A-64168

>  <MW_salt>
0

>  <Stereochem.data>
Achiral

>  <Geometric.isomer>
None

>  <Chemical name>
1-[3-(2,3-dihydro-1H-indol-1-yl)propyl]-2,4-dioxo-1,2,3,4-tetrahydropyrimidine-5-carbonitrile

>  <ClogP>
1,801

>  <logS>
-2,88

>  <HBD>
1

>  <HBA>
4

>  <TPSA>
76,44

>  <RotBonds>
4

$$$$

  Mrv1925 04172511352D          

 21 22  0  0  0  0            999 V2000
   -4.0829   -1.9537    0.0000 C   0  0  0  0  0  0  0  0  0  0  0  0
   -3.3684   -2.3662    0.0000 N   0  0  0  0  0  0  0  0  0  0  0  0
   -2.6539   -1.9537    0.0000 C   0  0  0  0  0  0  0  0  0  0  0  0
   -1.9394   -2.3662    0.0000 C   0  0  0  0  0  0  0  0  0  0  0  0
   -1.2250   -1.9537    0.0000 C   0  0  0  0  0  0  0  0  0  0  0  0
   -0.5105   -2.3662    0.0000 N   0  0  0  0  0  0  0  0  0  0  0  0
    0.2040   -1.9537    0.0000 C   0  0  0  0  0  0  0  0  0  0  0  0
    0.2040   -1.1287    0.0000 O   0  0  0  0  0  0  0  0  0  0  0  0
    0.9184   -2.3662    0.0000 C   0  0  0  0  0  0  0  0  0  0  0  0
    1.6329   -1.9537    0.0000 C   0  0  0  0  0  0  0  0  0  0  0  0
    1.5713   -1.1310    0.0000 C   0  0  0  0  0  0  0  0  0  0  0  0
    2.1760   -0.5698    0.0000 C   0  0  0  0  0  0  0  0  0  0  0  0
    2.9918   -0.6928    0.0000 C   0  0  0  0  0  0  0  0  0  0  0  0
    3.4043   -1.4073    0.0000 C   0  0  0  0  0  0  0  0  0  0  0  0
    3.1029   -2.1752    0.0000 C   0  0  0  0  0  0  0  0  0  0  0  0
    2.3146   -2.4184    0.0000 C   0  0  0  0  0  0  0  0  0  0  0  0
   -1.9394   -3.1912    0.0000 C   0  0  0  0  0  0  0  0  0  0  0  0
   -1.2250   -3.6037    0.0000 O   0  0  0  0  0  0  0  0  0  0  0  0
   -2.6539   -3.6037    0.0000 N   0  0  0  0  0  0  0  0  0  0  0  0
   -3.3684   -3.1912    0.0000 C   0  0  0  0  0  0  0  0  0  0  0  0
   -4.0829   -3.6037    0.0000 O   0  0  0  0  0  0  0  0  0  0  0  0
  1  2  1  0  0  0  0
  2  3  1  0  0  0  0
  3  4  2  0  0  0  0
  4  5  1  0  0  0  0
  5  6  1  0  0  0  0
  6  7  1  0  0  0  0
  7  8  2  0  0  0  0
  7  9  1  0  0  0  0
  9 10  1  0  0  0  0
 10 11  1  0  0  0  0
 11 12  1  0  0  0  0
 12 13  1  0  0  0  0
 13 14  1  0  0  0  0
 14 15  1  0  0  0  0
 15 16  1  0  0  0  0
 10 16  1  0  0  0  0
  4 17  1  0  0  0  0
 17 18  2  0  0  0  0
 17 19  1  0  0  0  0
 19 20  1  0  0  0  0
  2 20  1  0  0  0  0
 20 21  2  0  0  0  0
M  END
>  <Catalog ID>
Z2755767126

>  <Plate_ID>
2026983-X50-01

>  <Well>
E02

>  <V, µL>
50

>  <Conc, mM>
10

>  <Formula>
C15H23N3O3

>  <MW>
293.3614

>  <Purity>
100

>  <PO>
5A-64168

>  <MW_salt>
0

>  <Stereochem.data>
Achiral

>  <Geometric.isomer>
None

>  <Chemical name>
2-cycloheptyl-N-[(1-methyl-2,4-dioxo-1,2,3,4-tetrahydropyrimidin-5-yl)methyl]acetamide

>  <ClogP>
0,817

>  <logS>
-3,813

>  <HBD>
2

>  <HBA>
3

>  <TPSA>
78,51

>  <RotBonds>
4

$$$$

  Mrv1925 04172511352D          

 26 29  0  0  0  0            999 V2000
    5.0101    3.4083    0.0000 C   0  0  0  0  0  0  0  0  0  0  0  0
    4.2058    3.2248    0.0000 C   0  0  0  0  0  0  0  0  0  0  0  0
    4.0222    2.4205    0.0000 C   0  0  0  0  0  0  0  0  0  0  0  0
    3.2789    2.0625    0.0000 N   0  0  0  0  0  0  0  0  0  0  0  0
    2.5356    2.4205    0.0000 C   0  0  0  0  0  0  0  0  0  0  0  0
    2.3520    3.2248    0.0000 C   0  0  0  0  0  0  0  0  0  0  0  0
    2.8664    3.8698    0.0000 S   0  0  0  0  0  0  0  0  0  0  0  0
    2.5085    4.6131    0.0000 O   0  0  0  0  0  0  0  0  0  0  0  0
    3.6914    3.8698    0.0000 C   0  0  0  0  0  0  0  0  0  0  0  0
    3.2789    1.2375    0.0000 C   0  0  0  0  0  0  0  0  0  0  0  0
    3.9934    0.8250    0.0000 N   0  0  0  0  0  0  0  0  0  0  0  0
    3.9934    0.0000    0.0000 C   0  0  0  0  0  0  0  0  0  0  0  0
    3.2789   -0.4125    0.0000 N   0  0  0  0  0  0  0  0  0  0  0  0
    2.5645    0.0000    0.0000 C   0  0  0  0  0  0  0  0  0  0  0  0
    2.5645    0.8250    0.0000 C   0  0  0  0  0  0  0  0  0  0  0  0
    1.7798    1.0799    0.0000 N   0  0  0  0  0  0  0  0  0  0  0  0
    1.2949    0.4125    0.0000 C   0  0  0  0  0  0  0  0  0  0  0  0
    1.7798   -0.2549    0.0000 N   0  0  0  0  0  0  0  0  0  0  0  0
    1.5249   -1.0396    0.0000 C   0  0  0  0  0  0  0  0  0  0  0  0
    1.8994   -1.7746    0.0000 C   0  0  0  0  0  0  0  0  0  0  0  0
    1.1644   -2.1492    0.0000 C   0  0  0  0  0  0  0  0  0  0  0  0
    1.5389   -2.8843    0.0000 C   0  0  0  0  0  0  0  0  0  0  0  0
    2.3628   -2.9274    0.0000 O   0  0  0  0  0  0  0  0  0  0  0  0
    0.4293   -2.5237    0.0000 C   0  0  0  0  0  0  0  0  0  0  0  0
   -0.2626   -2.0744    0.0000 O   0  0  0  0  0  0  0  0  0  0  0  0
    0.7898   -1.4141    0.0000 C   0  0  0  0  0  0  0  0  0  0  0  0
  1  2  1  0  0  0  0
  2  3  1  0  0  0  0
  3  4  1  0  0  0  0
  4  5  1  0  0  0  0
  5  6  1  0  0  0  0
  6  7  1  0  0  0  0
  7  8  2  0  0  0  0
  7  9  1  0  0  0  0
  2  9  1  0  0  0  0
  4 10  1  0  0  0  0
 10 11  1  0  0  0  0
 11 12  2  0  0  0  0
 12 13  1  0  0  0  0
 13 14  2  0  0  0  0
 14 15  1  0  0  0  0
 10 15  2  0  0  0  0
 15 16  1  0  0  0  0
 16 17  2  0  0  0  0
 17 18  1  0  0  0  0
 14 18  1  0  0  0  0
 18 19  1  0  0  0  0
 19 20  1  0  0  0  0
 20 21  1  0  0  0  0
 21 22  1  0  0  0  0
 22 23  1  0  0  0  0
 21 24  1  0  0  0  0
 24 25  1  0  0  0  0
 21 26  1  0  0  0  0
 19 26  1  0  0  0  0
M  END
>  <Catalog ID>
Z2760962371

>  <Plate_ID>
2026983-X50-01

>  <Well>
F02

>  <V, µL>
50

>  <Conc, mM>
10

>  <Formula>
C17H25N5O3S

>  <MW>
379.4771

>  <Purity>
92.63

>  <PO>
5A-64168

>  <MW_salt>
0

>  <Stereochem.data>
Diastereomeric mixture

>  <Geometric.isomer>
Unequal mixture of geometric isomers

>  <Chemical name>
4-{9-[3,3-bis(hydroxymethyl)cyclobutyl]-9H-purin-6-yl}-6-methyl-1lambda4,4-thiazepan-1-one

>  <ClogP>
-2,095

>  <logS>
-1,963

>  <HBD>
2

>  <HBA>
7

>  <TPSA>
104,37

>  <RotBonds>
4

$$$$

  Mrv1925 04172511352D          

 34 38  0  0  0  0            999 V2000
   -5.2996   -3.0779    0.0000 O   0  0  0  0  0  0  0  0  0  0  0  0
   -5.2996   -2.2529    0.0000 C   0  0  0  0  0  0  0  0  0  0  0  0
   -4.5851   -1.8404    0.0000 C   0  0  0  0  0  0  0  0  0  0  0  0
   -3.8706   -2.2529    0.0000 N   0  0  0  0  0  0  0  0  0  0  0  0
   -3.1561   -1.8404    0.0000 C   0  0  0  0  0  0  0  0  0  0  0  0
   -3.1561   -1.0154    0.0000 O   0  0  0  0  0  0  0  0  0  0  0  0
   -2.4417   -2.2529    0.0000 C   0  0  0  0  0  0  0  0  0  0  0  0
   -1.7272   -1.8404    0.0000 F   0  0  0  0  0  0  0  0  0  0  0  0
   -2.4417   -3.0779    0.0000 C   0  0  0  0  0  0  0  0  0  0  0  0
   -3.1561   -3.4904    0.0000 N   0  0  0  0  0  0  0  0  0  0  0  0
   -3.8706   -3.0779    0.0000 C   0  0  0  0  0  0  0  0  0  0  0  0
   -4.5851   -3.4904    0.0000 O   0  0  0  0  0  0  0  0  0  0  0  0
   -3.1561   -4.3154    0.0000 C   0  0  0  0  0  0  0  0  0  0  0  0
   -2.4887   -4.8003    0.0000 C   0  0  0  0  0  0  0  0  0  0  0  0
   -2.7436   -5.5850    0.0000 C   0  0  0  0  0  0  0  0  0  0  0  0
   -3.5686   -5.5850    0.0000 C   0  0  0  0  0  0  0  0  0  0  0  0
   -3.8236   -4.8003    0.0000 O   0  0  0  0  0  0  0  0  0  0  0  0
   -6.0140   -1.8404    0.0000 N   0  0  0  0  0  0  0  0  0  0  0  0
   -6.7677   -2.1760    0.0000 N   0  0  0  0  0  0  0  0  0  0  0  0
   -7.3197   -1.5629    0.0000 C   0  0  0  0  0  0  0  0  0  0  0  0
   -6.9072   -0.8484    0.0000 C   0  0  0  0  0  0  0  0  0  0  0  0
   -6.1003   -1.0199    0.0000 C   0  0  0  0  0  0  0  0  0  0  0  0
   -5.4872   -0.4679    0.0000 C   0  0  0  0  0  0  0  0  0  0  0  0
   -5.5734    0.3526    0.0000 C   0  0  0  0  0  0  0  0  0  0  0  0
   -4.8197    0.6881    0.0000 C   0  0  0  0  0  0  0  0  0  0  0  0
   -4.2677    0.0750    0.0000 C   0  0  0  0  0  0  0  0  0  0  0  0
   -4.6802   -0.6394    0.0000 O   0  0  0  0  0  0  0  0  0  0  0  0
   -8.1402   -1.6491    0.0000 C   0  0  0  0  0  0  0  0  0  0  0  0
   -8.4758   -2.4028    0.0000 C   0  0  0  0  0  0  0  0  0  0  0  0
   -9.2963   -2.4890    0.0000 C   0  0  0  0  0  0  0  0  0  0  0  0
   -9.7812   -1.8216    0.0000 C   0  0  0  0  0  0  0  0  0  0  0  0
  -10.6017   -1.9078    0.0000 Cl  0  0  0  0  0  0  0  0  0  0  0  0
   -9.4456   -1.0679    0.0000 C   0  0  0  0  0  0  0  0  0  0  0  0
   -8.6251   -0.9817    0.0000 C   0  0  0  0  0  0  0  0  0  0  0  0
  1  2  2  0  0  0  0
  2  3  1  0  0  0  0
  3  4  1  0  0  0  0
  4  5  1  0  0  0  0
  5  6  2  0  0  0  0
  5  7  1  0  0  0  0
  7  8  1  0  0  0  0
  7  9  2  0  0  0  0
  9 10  1  0  0  0  0
 10 11  1  0  0  0  0
  4 11  1  0  0  0  0
 11 12  2  0  0  0  0
 10 13  1  0  0  0  0
 13 14  1  0  0  0  0
 14 15  1  0  0  0  0
 15 16  1  0  0  0  0
 16 17  1  0  0  0  0
 13 17  1  0  0  0  0
  2 18  1  0  0  0  0
 18 19  1  0  0  0  0
 19 20  2  0  0  0  0
 20 21  1  0  0  0  0
 21 22  1  0  0  0  0
 18 22  1  0  0  0  0
 22 23  1  0  0  0  0
 23 24  2  0  0  0  0
 24 25  1  0  0  0  0
 25 26  2  0  0  0  0
 26 27  1  0  0  0  0
 23 27  1  0  0  0  0
 20 28  1  0  0  0  0
 28 29  1  0  0  0  0
 29 30  2  0  0  0  0
 30 31  1  0  0  0  0
 31 32  1  0  0  0  0
 31 33  2  0  0  0  0
 33 34  1  0  0  0  0
 28 34  2  0  0  0  0
M  END
>  <Catalog ID>
Z94557627

>  <Plate_ID>
2026983-X50-01

>  <Well>
G02

>  <V, µL>
50

>  <Conc, mM>
10

>  <Formula>
C23H20ClFN4O5

>  <MW>
486.8801

>  <Purity>
93.93

>  <PO>
5A-64168

>  <MW_salt>
0

>  <Stereochem.data>
Diastereomeric mixture

>  <Geometric.isomer>
None

>  <Chemical name>
3-{2-[3-(4-chlorophenyl)-5-(furan-2-yl)-4,5-dihydro-1H-pyrazol-1-yl]-2-oxoethyl}-5-fluoro-1-(oxolan-2-yl)-1,2,3,4-tetrahydropyrimidine-2,4-dione

>  <ClogP>
4,158

>  <logS>
-4,76

>  <HBD>
0

>  <HBA>
5

>  <TPSA>
95,66

>  <RotBonds>
5

$$$$

  Mrv1925 04172511352D          

 31 34  0  0  0  0            999 V2000
    4.1801    2.4134    0.0000 O   0  0  0  0  0  0  0  0  0  0  0  0
    4.1801    3.2384    0.0000 C   0  0  0  0  0  0  0  0  0  0  0  0
    4.8946    3.6509    0.0000 C   0  0  0  0  0  0  0  0  0  0  0  0
    5.6091    3.2384    0.0000 N   0  0  0  0  0  0  0  0  0  0  0  0
    6.3235    3.6509    0.0000 C   0  0  0  0  0  0  0  0  0  0  0  0
    6.3235    4.4759    0.0000 O   0  0  0  0  0  0  0  0  0  0  0  0
    7.0380    3.2384    0.0000 C   0  0  0  0  0  0  0  0  0  0  0  0
    7.7525    3.6509    0.0000 F   0  0  0  0  0  0  0  0  0  0  0  0
    7.0380    2.4134    0.0000 C   0  0  0  0  0  0  0  0  0  0  0  0
    6.3235    2.0009    0.0000 N   0  0  0  0  0  0  0  0  0  0  0  0
    5.6091    2.4134    0.0000 C   0  0  0  0  0  0  0  0  0  0  0  0
    4.8946    2.0009    0.0000 O   0  0  0  0  0  0  0  0  0  0  0  0
    6.3235    1.1759    0.0000 C   0  0  0  0  0  0  0  0  0  0  0  0
    6.9910    0.6910    0.0000 C   0  0  0  0  0  0  0  0  0  0  0  0
    6.7360   -0.0937    0.0000 C   0  0  0  0  0  0  0  0  0  0  0  0
    5.9110   -0.0937    0.0000 C   0  0  0  0  0  0  0  0  0  0  0  0
    5.6561    0.6910    0.0000 O   0  0  0  0  0  0  0  0  0  0  0  0
    3.4656    3.6509    0.0000 N   0  0  0  0  0  0  0  0  0  0  0  0
    2.7512    3.2384    0.0000 C   0  0  0  0  0  0  0  0  0  0  0  0
    2.7512    2.4134    0.0000 C   0  0  0  0  0  0  0  0  0  0  0  0
    2.0367    2.0009    0.0000 C   0  0  0  0  0  0  0  0  0  0  0  0
    1.3222    2.4134    0.0000 C   0  0  0  0  0  0  0  0  0  0  0  0
    1.3222    3.2384    0.0000 C   0  0  0  0  0  0  0  0  0  0  0  0
    2.0367    3.6509    0.0000 C   0  0  0  0  0  0  0  0  0  0  0  0
    2.0367    4.4759    0.0000 O   0  0  0  0  0  0  0  0  0  0  0  0
    2.7512    4.8884    0.0000 C   0  0  0  0  0  0  0  0  0  0  0  0
    2.7512    5.7134    0.0000 C   0  0  0  0  0  0  0  0  0  0  0  0
    3.4656    6.1259    0.0000 C   0  0  0  0  0  0  0  0  0  0  0  0
    4.1801    5.7134    0.0000 C   0  0  0  0  0  0  0  0  0  0  0  0
    4.1801    4.8884    0.0000 C   0  0  0  0  0  0  0  0  0  0  0  0
    3.4656    4.4759    0.0000 C   0  0  0  0  0  0  0  0  0  0  0  0
  1  2  2  0  0  0  0
  2  3  1  0  0  0  0
  3  4  1  0  0  0  0
  4  5  1  0  0  0  0
  5  6  2  0  0  0  0
  5  7  1  0  0  0  0
  7  8  1  0  0  0  0
  7  9  2  0  0  0  0
  9 10  1  0  0  0  0
 10 11  1  0  0  0  0
  4 11  1  0  0  0  0
 11 12  2  0  0  0  0
 10 13  1  0  0  0  0
 13 14  1  0  0  0  0
 14 15  1  0  0  0  0
 15 16  1  0  0  0  0
 16 17  1  0  0  0  0
 13 17  1  0  0  0  0
  2 18  1  0  0  0  0
 18 19  1  0  0  0  0
 19 20  2  0  0  0  0
 20 21  1  0  0  0  0
 21 22  2  0  0  0  0
 22 23  1  0  0  0  0
 23 24  2  0  0  0  0
 19 24  1  0  0  0  0
 24 25  1  0  0  0  0
 25 26  1  0  0  0  0
 26 27  1  0  0  0  0
 27 28  2  0  0  0  0
 28 29  1  0  0  0  0
 29 30  2  0  0  0  0
 30 31  1  0  0  0  0
 26 31  2  0  0  0  0
M  END
>  <Catalog ID>
Z94556468

>  <Plate_ID>
2026983-X50-01

>  <Well>
H02

>  <V, µL>
50

>  <Conc, mM>
10

>  <Formula>
C22H20FN3O5

>  <MW>
425.4097

>  <Purity>
100

>  <PO>
5A-64168

>  <MW_salt>
0

>  <Stereochem.data>
Racemic or presumed racemic or meso

>  <Geometric.isomer>
None

>  <Chemical name>
2-[5-fluoro-2,6-dioxo-3-(oxolan-2-yl)-1,2,3,6-tetrahydropyrimidin-1-yl]-N-(2-phenoxyphenyl)acetamide

>  <ClogP>
3,554

>  <logS>
-4,3

>  <HBD>
1

>  <HBA>
4

>  <TPSA>
88,18

>  <RotBonds>
6

$$$$

  Mrv1925 04172511352D          

 32 35  0  0  0  0            999 V2000
    4.1801    2.4134    0.0000 O   0  0  0  0  0  0  0  0  0  0  0  0
    4.1801    3.2384    0.0000 C   0  0  0  0  0  0  0  0  0  0  0  0
    4.8946    3.6509    0.0000 C   0  0  0  0  0  0  0  0  0  0  0  0
    5.6091    3.2384    0.0000 N   0  0  0  0  0  0  0  0  0  0  0  0
    6.3235    3.6509    0.0000 C   0  0  0  0  0  0  0  0  0  0  0  0
    6.3235    4.4759    0.0000 O   0  0  0  0  0  0  0  0  0  0  0  0
    7.0380    3.2384    0.0000 C   0  0  0  0  0  0  0  0  0  0  0  0
    7.7525    3.6509    0.0000 F   0  0  0  0  0  0  0  0  0  0  0  0
    7.0380    2.4134    0.0000 C   0  0  0  0  0  0  0  0  0  0  0  0
    6.3235    2.0009    0.0000 N   0  0  0  0  0  0  0  0  0  0  0  0
    5.6091    2.4134    0.0000 C   0  0  0  0  0  0  0  0  0  0  0  0
    4.8946    2.0009    0.0000 O   0  0  0  0  0  0  0  0  0  0  0  0
    6.3235    1.1759    0.0000 C   0  0  0  0  0  0  0  0  0  0  0  0
    6.9910    0.6910    0.0000 C   0  0  0  0  0  0  0  0  0  0  0  0
    6.7360   -0.0937    0.0000 C   0  0  0  0  0  0  0  0  0  0  0  0
    5.9110   -0.0937    0.0000 C   0  0  0  0  0  0  0  0  0  0  0  0
    5.6561    0.6910    0.0000 O   0  0  0  0  0  0  0  0  0  0  0  0
    3.4656    3.6509    0.0000 N   0  0  0  0  0  0  0  0  0  0  0  0
    2.7512    3.2384    0.0000 C   0  0  0  0  0  0  0  0  0  0  0  0
    2.7512    2.4134    0.0000 C   0  0  0  0  0  0  0  0  0  0  0  0
    2.0367    2.0009    0.0000 C   0  0  0  0  0  0  0  0  0  0  0  0
    1.3222    2.4134    0.0000 C   0  0  0  0  0  0  0  0  0  0  0  0
    1.3222    3.2384    0.0000 C   0  0  0  0  0  0  0  0  0  0  0  0
    2.0367    3.6509    0.0000 C   0  0  0  0  0  0  0  0  0  0  0  0
    2.0367    4.4759    0.0000 S   0  0  0  0  0  0  0  0  0  0  0  0
    2.7512    4.8884    0.0000 C   0  0  0  0  0  0  0  0  0  0  0  0
    2.7512    5.7134    0.0000 C   0  0  0  0  0  0  0  0  0  0  0  0
    3.4656    6.1259    0.0000 C   0  0  0  0  0  0  0  0  0  0  0  0
    4.1801    5.7134    0.0000 C   0  0  0  0  0  0  0  0  0  0  0  0
    4.8946    6.1259    0.0000 Cl  0  0  0  0  0  0  0  0  0  0  0  0
    4.1801    4.8884    0.0000 C   0  0  0  0  0  0  0  0  0  0  0  0
    3.4656    4.4759    0.0000 C   0  0  0  0  0  0  0  0  0  0  0  0
  1  2  2  0  0  0  0
  2  3  1  0  0  0  0
  3  4  1  0  0  0  0
  4  5  1  0  0  0  0
  5  6  2  0  0  0  0
  5  7  1  0  0  0  0
  7  8  1  0  0  0  0
  7  9  2  0  0  0  0
  9 10  1  0  0  0  0
 10 11  1  0  0  0  0
  4 11  1  0  0  0  0
 11 12  2  0  0  0  0
 10 13  1  0  0  0  0
 13 14  1  0  0  0  0
 14 15  1  0  0  0  0
 15 16  1  0  0  0  0
 16 17  1  0  0  0  0
 13 17  1  0  0  0  0
  2 18  1  0  0  0  0
 18 19  1  0  0  0  0
 19 20  2  0  0  0  0
 20 21  1  0  0  0  0
 21 22  2  0  0  0  0
 22 23  1  0  0  0  0
 23 24  2  0  0  0  0
 19 24  1  0  0  0  0
 24 25  1  0  0  0  0
 25 26  1  0  0  0  0
 26 27  1  0  0  0  0
 27 28  2  0  0  0  0
 28 29  1  0  0  0  0
 29 30  1  0  0  0  0
 29 31  2  0  0  0  0
 31 32  1  0  0  0  0
 26 32  2  0  0  0  0
M  END
>  <Catalog ID>
Z94557849

>  <Plate_ID>
2026983-X50-01

>  <Well>
A03

>  <V, µL>
50

>  <Conc, mM>
10

>  <Formula>
C22H19ClFN3O4S

>  <MW>
475.9204

>  <Purity>
93.13

>  <PO>
5A-64168

>  <MW_salt>
0

>  <Stereochem.data>
Racemic or presumed racemic or meso

>  <Geometric.isomer>
None

>  <Chemical name>
N-{2-[(4-chlorophenyl)sulfanyl]phenyl}-2-[5-fluoro-2,6-dioxo-3-(oxolan-2-yl)-1,2,3,6-tetrahydropyrimidin-1-yl]acetamide

>  <ClogP>
4,953

>  <logS>
-5,7

>  <HBD>
1

>  <HBA>
4

>  <TPSA>
78,95

>  <RotBonds>
6

$$$$

  Mrv1925 04172511352D          

 27 30  0  0  0  0            999 V2000
    3.3523    3.5854    0.0000 O   0  0  0  0  0  0  0  0  0  0  0  0
    4.0668    3.1729    0.0000 C   0  0  0  0  0  0  0  0  0  0  0  0
    4.7812    3.5854    0.0000 C   0  0  0  0  0  0  0  0  0  0  0  0
    4.7812    4.4104    0.0000 N   0  0  0  0  0  0  0  0  0  0  0  0
    4.0668    4.8229    0.0000 C   0  0  0  0  0  0  0  0  0  0  0  0
    3.3523    4.4104    0.0000 O   0  0  0  0  0  0  0  0  0  0  0  0
    4.0668    5.6479    0.0000 C   0  0  0  0  0  0  0  0  0  0  0  0
    3.3523    6.0604    0.0000 F   0  0  0  0  0  0  0  0  0  0  0  0
    4.7812    6.0604    0.0000 C   0  0  0  0  0  0  0  0  0  0  0  0
    5.4957    5.6479    0.0000 N   0  0  0  0  0  0  0  0  0  0  0  0
    5.4957    4.8229    0.0000 C   0  0  0  0  0  0  0  0  0  0  0  0
    6.2102    4.4104    0.0000 O   0  0  0  0  0  0  0  0  0  0  0  0
    6.2102    6.0604    0.0000 C   0  0  0  0  0  0  0  0  0  0  0  0
    6.2964    6.8809    0.0000 C   0  0  0  0  0  0  0  0  0  0  0  0
    7.1034    7.0525    0.0000 C   0  0  0  0  0  0  0  0  0  0  0  0
    7.5159    6.3380    0.0000 C   0  0  0  0  0  0  0  0  0  0  0  0
    6.9638    5.7249    0.0000 O   0  0  0  0  0  0  0  0  0  0  0  0
    4.0668    2.3479    0.0000 N   0  0  0  0  0  0  0  0  0  0  0  0
    3.3523    1.9354    0.0000 C   0  0  0  0  0  0  0  0  0  0  0  0
    3.3523    1.1104    0.0000 C   0  0  0  0  0  0  0  0  0  0  0  0
    2.6378    0.6979    0.0000 C   0  0  0  0  0  0  0  0  0  0  0  0
    1.9233    1.1104    0.0000 C   0  0  0  0  0  0  0  0  0  0  0  0
    1.1387    0.8555    0.0000 C   0  0  0  0  0  0  0  0  0  0  0  0
    0.6538    1.5229    0.0000 C   0  0  0  0  0  0  0  0  0  0  0  0
    1.1387    2.1904    0.0000 C   0  0  0  0  0  0  0  0  0  0  0  0
    1.9233    1.9354    0.0000 C   0  0  0  0  0  0  0  0  0  0  0  0
    2.6378    2.3479    0.0000 C   0  0  0  0  0  0  0  0  0  0  0  0
  1  2  2  0  0  0  0
  2  3  1  0  0  0  0
  3  4  1  0  0  0  0
  4  5  1  0  0  0  0
  5  6  2  0  0  0  0
  5  7  1  0  0  0  0
  7  8  1  0  0  0  0
  7  9  2  0  0  0  0
  9 10  1  0  0  0  0
 10 11  1  0  0  0  0
  4 11  1  0  0  0  0
 11 12  2  0  0  0  0
 10 13  1  0  0  0  0
 13 14  1  0  0  0  0
 14 15  1  0  0  0  0
 15 16  1  0  0  0  0
 16 17  1  0  0  0  0
 13 17  1  0  0  0  0
  2 18  1  0  0  0  0
 18 19  1  0  0  0  0
 19 20  1  0  0  0  0
 20 21  2  0  0  0  0
 21 22  1  0  0  0  0
 22 23  1  0  0  0  0
 23 24  1  0  0  0  0
 24 25  1  0  0  0  0
 25 26  1  0  0  0  0
 22 26  2  0  0  0  0
 26 27  1  0  0  0  0
 19 27  2  0  0  0  0
M  END
>  <Catalog ID>
Z94560110

>  <Plate_ID>
2026983-X50-01

>  <Well>
B03

>  <V, µL>
50

>  <Conc, mM>
10

>  <Formula>
C19H20FN3O4

>  <MW>
373.3782

>  <Purity>
100

>  <PO>
5A-64168

>  <MW_salt>
0

>  <Stereochem.data>
Racemic or presumed racemic or meso

>  <Geometric.isomer>
None

>  <Chemical name>
N-(2,3-dihydro-1H-inden-5-yl)-2-[5-fluoro-2,6-dioxo-3-(oxolan-2-yl)-1,2,3,6-tetrahydropyrimidin-1-yl]acetamide

>  <ClogP>
3,059

>  <logS>
-3,82

>  <HBD>
1

>  <HBA>
4

>  <TPSA>
78,95

>  <RotBonds>
4

$$$$

  Mrv1925 04172511352D          

 27 30  0  0  0  0            999 V2000
   -0.7145   -1.2375    0.0000 O   0  0  0  0  0  0  0  0  0  0  0  0
   -0.7145   -0.4125    0.0000 C   0  0  0  0  0  0  0  0  0  0  0  0
   -1.4289    0.0000    0.0000 C   0  0  0  0  0  0  0  0  0  0  0  0
   -2.1434   -0.4125    0.0000 F   0  0  0  0  0  0  0  0  0  0  0  0
   -1.4289    0.8250    0.0000 C   0  0  0  0  0  0  0  0  0  0  0  0
   -0.7145    1.2375    0.0000 N   0  0  0  0  0  0  0  0  0  0  0  0
    0.0000    0.8250    0.0000 C   0  0  0  0  0  0  0  0  0  0  0  0
    0.7145    1.2375    0.0000 O   0  0  0  0  0  0  0  0  0  0  0  0
    0.0000   -0.0000    0.0000 N   0  0  0  0  0  0  0  0  0  0  0  0
    0.7145   -0.4125    0.0000 C   0  0  0  0  0  0  0  0  0  0  0  0
    0.7145   -1.2375    0.0000 C   0  0  0  0  0  0  0  0  0  0  0  0
    1.3819   -1.7224    0.0000 N   0  0  0  0  0  0  0  0  0  0  0  0
    1.1270   -2.5070    0.0000 N   0  0  0  0  0  0  0  0  0  0  0  0
    0.3020   -2.5070    0.0000 C   0  0  0  0  0  0  0  0  0  0  0  0
    0.0470   -1.7224    0.0000 O   0  0  0  0  0  0  0  0  0  0  0  0
   -0.1830   -3.1745    0.0000 C   0  0  0  0  0  0  0  0  0  0  0  0
    0.1526   -3.9282    0.0000 C   0  0  0  0  0  0  0  0  0  0  0  0
   -0.3323   -4.5956    0.0000 C   0  0  0  0  0  0  0  0  0  0  0  0
   -1.1528   -4.5094    0.0000 C   0  0  0  0  0  0  0  0  0  0  0  0
   -1.6377   -5.1768    0.0000 Cl  0  0  0  0  0  0  0  0  0  0  0  0
   -1.4884   -3.7557    0.0000 C   0  0  0  0  0  0  0  0  0  0  0  0
   -1.0034   -3.0882    0.0000 C   0  0  0  0  0  0  0  0  0  0  0  0
   -0.7145    2.0625    0.0000 C   0  0  0  0  0  0  0  0  0  0  0  0
   -1.3819    2.5474    0.0000 C   0  0  0  0  0  0  0  0  0  0  0  0
   -1.1270    3.3320    0.0000 C   0  0  0  0  0  0  0  0  0  0  0  0
   -0.3020    3.3320    0.0000 C   0  0  0  0  0  0  0  0  0  0  0  0
   -0.0470    2.5474    0.0000 O   0  0  0  0  0  0  0  0  0  0  0  0
  1  2  2  0  0  0  0
  2  3  1  0  0  0  0
  3  4  1  0  0  0  0
  3  5  2  0  0  0  0
  5  6  1  0  0  0  0
  6  7  1  0  0  0  0
  7  8  2  0  0  0  0
  7  9  1  0  0  0  0
  2  9  1  0  0  0  0
  9 10  1  0  0  0  0
 10 11  1  0  0  0  0
 11 12  2  0  0  0  0
 12 13  1  0  0  0  0
 13 14  2  0  0  0  0
 14 15  1  0  0  0  0
 11 15  1  0  0  0  0
 14 16  1  0  0  0  0
 16 17  1  0  0  0  0
 17 18  2  0  0  0  0
 18 19  1  0  0  0  0
 19 20  1  0  0  0  0
 19 21  2  0  0  0  0
 21 22  1  0  0  0  0
 16 22  2  0  0  0  0
  6 23  1  0  0  0  0
 23 24  1  0  0  0  0
 24 25  1  0  0  0  0
 25 26  1  0  0  0  0
 26 27  1  0  0  0  0
 23 27  1  0  0  0  0
M  END
>  <Catalog ID>
Z107296274

>  <Plate_ID>
2026983-X50-01

>  <Well>
C03

>  <V, µL>
50

>  <Conc, mM>
10

>  <Formula>
C17H14ClFN4O4

>  <MW>
392.7689

>  <Purity>
96.39

>  <PO>
5A-64168

>  <MW_salt>
0

>  <Stereochem.data>
Racemic or presumed racemic or meso

>  <Geometric.isomer>
None

>  <Chemical name>
3-{[5-(4-chlorophenyl)-1,3,4-oxadiazol-2-yl]methyl}-5-fluoro-1-(oxolan-2-yl)-1,2,3,4-tetrahydropyrimidine-2,4-dione

>  <ClogP>
1,658

>  <logS>
-3,7

>  <HBD>
0

>  <HBA>
5

>  <TPSA>
88,77

>  <RotBonds>
4

$$$$

  Mrv1925 04172511352D          

 32 35  0  0  0  0            999 V2000
    2.1434   -1.2375    0.0000 O   0  0  0  0  0  0  0  0  0  0  0  0
    1.4289   -1.6500    0.0000 C   0  0  0  0  0  0  0  0  0  0  0  0
    1.4289   -2.4750    0.0000 C   0  0  0  0  0  0  0  0  0  0  0  0
    2.1434   -2.8875    0.0000 N   0  0  0  0  0  0  0  0  0  0  0  0
    2.8579   -2.4750    0.0000 C   0  0  0  0  0  0  0  0  0  0  0  0
    2.8579   -1.6500    0.0000 O   0  0  0  0  0  0  0  0  0  0  0  0
    3.5724   -2.8875    0.0000 C   0  0  0  0  0  0  0  0  0  0  0  0
    4.2868   -2.4750    0.0000 F   0  0  0  0  0  0  0  0  0  0  0  0
    3.5724   -3.7125    0.0000 C   0  0  0  0  0  0  0  0  0  0  0  0
    2.8579   -4.1250    0.0000 N   0  0  0  0  0  0  0  0  0  0  0  0
    2.1434   -3.7125    0.0000 C   0  0  0  0  0  0  0  0  0  0  0  0
    1.4289   -4.1250    0.0000 O   0  0  0  0  0  0  0  0  0  0  0  0
    2.8579   -4.9500    0.0000 C   0  0  0  0  0  0  0  0  0  0  0  0
    3.5253   -5.4349    0.0000 C   0  0  0  0  0  0  0  0  0  0  0  0
    3.2704   -6.2195    0.0000 C   0  0  0  0  0  0  0  0  0  0  0  0
    2.4454   -6.2195    0.0000 C   0  0  0  0  0  0  0  0  0  0  0  0
    2.1904   -5.4349    0.0000 O   0  0  0  0  0  0  0  0  0  0  0  0
    0.7145   -1.2375    0.0000 N   0  0  0  0  0  0  0  0  0  0  0  0
    0.7145   -0.4125    0.0000 C   0  0  0  0  0  0  0  0  0  0  0  0
    0.0000    0.0000    0.0000 C   0  0  0  0  0  0  0  0  0  0  0  0
    0.0000    0.8250    0.0000 C   0  0  0  0  0  0  0  0  0  0  0  0
    0.7145    1.2375    0.0000 C   0  0  0  0  0  0  0  0  0  0  0  0
    1.4289    0.8250    0.0000 C   0  0  0  0  0  0  0  0  0  0  0  0
    1.4289    0.0000    0.0000 C   0  0  0  0  0  0  0  0  0  0  0  0
    0.7145    2.0625    0.0000 S   0  0  0  0  0  0  0  0  0  0  0  0
    1.5395    2.0625    0.0000 O   0  0  0  0  0  0  0  0  0  0  0  0
   -0.1105    2.0625    0.0000 O   0  0  0  0  0  0  0  0  0  0  0  0
    0.7145    2.8875    0.0000 N   0  0  0  0  0  0  0  0  0  0  0  0
    0.0470    3.3724    0.0000 C   0  0  0  0  0  0  0  0  0  0  0  0
    0.3020    4.1570    0.0000 C   0  0  0  0  0  0  0  0  0  0  0  0
    1.1270    4.1570    0.0000 C   0  0  0  0  0  0  0  0  0  0  0  0
    1.3819    3.3724    0.0000 C   0  0  0  0  0  0  0  0  0  0  0  0
  1  2  2  0  0  0  0
  2  3  1  0  0  0  0
  3  4  1  0  0  0  0
  4  5  1  0  0  0  0
  5  6  2  0  0  0  0
  5  7  1  0  0  0  0
  7  8  1  0  0  0  0
  7  9  2  0  0  0  0
  9 10  1  0  0  0  0
 10 11  1  0  0  0  0
  4 11  1  0  0  0  0
 11 12  2  0  0  0  0
 10 13  1  0  0  0  0
 13 14  1  0  0  0  0
 14 15  1  0  0  0  0
 15 16  1  0  0  0  0
 16 17  1  0  0  0  0
 13 17  1  0  0  0  0
  2 18  1  0  0  0  0
 18 19  1  0  0  0  0
 19 20  1  0  0  0  0
 20 21  2  0  0  0  0
 21 22  1  0  0  0  0
 22 23  2  0  0  0  0
 23 24  1  0  0  0  0
 19 24  2  0  0  0  0
 22 25  1  0  0  0  0
 25 26  2  0  0  0  0
 25 27  2  0  0  0  0
 25 28  1  0  0  0  0
 28 29  1  0  0  0  0
 29 30  1  0  0  0  0
 30 31  1  0  0  0  0
 31 32  1  0  0  0  0
 28 32  1  0  0  0  0
M  END
>  <Catalog ID>
Z94556873

>  <Plate_ID>
2026983-X50-01

>  <Well>
D03

>  <V, µL>
50

>  <Conc, mM>
10

>  <Formula>
C20H23FN4O6S

>  <MW>
466.4832

>  <Purity>
94.55

>  <PO>
5A-64168

>  <MW_salt>
0

>  <Stereochem.data>
Racemic or presumed racemic or meso

>  <Geometric.isomer>
None

>  <Chemical name>
2-[5-fluoro-2,6-dioxo-3-(oxolan-2-yl)-1,2,3,6-tetrahydropyrimidin-1-yl]-N-[4-(pyrrolidine-1-sulfonyl)phenyl]acetamide

>  <ClogP>
2,335

>  <logS>
-2,91

>  <HBD>
1

>  <HBA>
6

>  <TPSA>
116,33

>  <RotBonds>
5

$$$$

  Mrv1925 04172511352D          

 26 29  0  0  0  0            999 V2000
    1.4358   -2.7631    0.0000 O   0  0  0  0  0  0  0  0  0  0  0  0
    0.8838   -2.1500    0.0000 C   0  0  0  0  0  0  0  0  0  0  0  0
    0.0768   -2.3215    0.0000 C   0  0  0  0  0  0  0  0  0  0  0  0
   -0.1781   -3.1062    0.0000 N   0  0  0  0  0  0  0  0  0  0  0  0
    0.3739   -3.7192    0.0000 C   0  0  0  0  0  0  0  0  0  0  0  0
    1.1809   -3.5477    0.0000 O   0  0  0  0  0  0  0  0  0  0  0  0
    0.1190   -4.5039    0.0000 C   0  0  0  0  0  0  0  0  0  0  0  0
    0.6710   -5.1170    0.0000 F   0  0  0  0  0  0  0  0  0  0  0  0
   -0.6880   -4.6754    0.0000 C   0  0  0  0  0  0  0  0  0  0  0  0
   -1.2400   -4.0623    0.0000 N   0  0  0  0  0  0  0  0  0  0  0  0
   -0.9851   -3.2777    0.0000 C   0  0  0  0  0  0  0  0  0  0  0  0
   -1.5371   -2.6646    0.0000 O   0  0  0  0  0  0  0  0  0  0  0  0
   -2.0470   -4.2338    0.0000 C   0  0  0  0  0  0  0  0  0  0  0  0
   -2.3826   -4.9875    0.0000 C   0  0  0  0  0  0  0  0  0  0  0  0
   -3.2030   -4.9013    0.0000 C   0  0  0  0  0  0  0  0  0  0  0  0
   -3.3746   -4.0943    0.0000 C   0  0  0  0  0  0  0  0  0  0  0  0
   -2.6601   -3.6818    0.0000 O   0  0  0  0  0  0  0  0  0  0  0  0
    1.1387   -1.3654    0.0000 N   0  0  0  0  0  0  0  0  0  0  0  0
    0.6538   -0.6979    0.0000 C   0  0  0  0  0  0  0  0  0  0  0  0
    1.1387   -0.0305    0.0000 C   0  0  0  0  0  0  0  0  0  0  0  0
    1.9233   -0.2854    0.0000 C   0  0  0  0  0  0  0  0  0  0  0  0
    2.6378    0.1271    0.0000 C   0  0  0  0  0  0  0  0  0  0  0  0
    3.3523   -0.2854    0.0000 C   0  0  0  0  0  0  0  0  0  0  0  0
    3.3523   -1.1104    0.0000 C   0  0  0  0  0  0  0  0  0  0  0  0
    2.6378   -1.5229    0.0000 C   0  0  0  0  0  0  0  0  0  0  0  0
    1.9233   -1.1104    0.0000 C   0  0  0  0  0  0  0  0  0  0  0  0
  1  2  2  0  0  0  0
  2  3  1  0  0  0  0
  3  4  1  0  0  0  0
  4  5  1  0  0  0  0
  5  6  2  0  0  0  0
  5  7  1  0  0  0  0
  7  8  1  0  0  0  0
  7  9  2  0  0  0  0
  9 10  1  0  0  0  0
 10 11  1  0  0  0  0
  4 11  1  0  0  0  0
 11 12  2  0  0  0  0
 10 13  1  0  0  0  0
 13 14  1  0  0  0  0
 14 15  1  0  0  0  0
 15 16  1  0  0  0  0
 16 17  1  0  0  0  0
 13 17  1  0  0  0  0
  2 18  1  0  0  0  0
 18 19  1  0  0  0  0
 19 20  1  0  0  0  0
 20 21  1  0  0  0  0
 21 22  1  0  0  0  0
 22 23  2  0  0  0  0
 23 24  1  0  0  0  0
 24 25  2  0  0  0  0
 25 26  1  0  0  0  0
 21 26  2  0  0  0  0
 18 26  1  0  0  0  0
M  END
>  <Catalog ID>
Z94556768

>  <Plate_ID>
2026983-X50-01

>  <Well>
E03

>  <V, µL>
50

>  <Conc, mM>
10

>  <Formula>
C18H18FN3O4

>  <MW>
359.3516

>  <Purity>
92.15

>  <PO>
5A-64168

>  <MW_salt>
0

>  <Stereochem.data>
Racemic or presumed racemic or meso

>  <Geometric.isomer>
None

>  <Chemical name>
3-[2-(2,3-dihydro-1H-indol-1-yl)-2-oxoethyl]-5-fluoro-1-(oxolan-2-yl)-1,2,3,4-tetrahydropyrimidine-2,4-dione

>  <ClogP>
2,506

>  <logS>
-2,83

>  <HBD>
0

>  <HBA>
4

>  <TPSA>
70,16

>  <RotBonds>
3

$$$$

  Mrv1925 04172511352D          

 35 38  0  0  0  0            999 V2000
   -2.2501   10.9527    0.0000 C   0  0  0  0  0  0  0  0  0  0  0  0
   -1.5356   10.5402    0.0000 O   0  0  0  0  0  0  0  0  0  0  0  0
   -0.8212   10.9527    0.0000 C   0  0  0  0  0  0  0  0  0  0  0  0
   -0.8212   11.7777    0.0000 C   0  0  0  0  0  0  0  0  0  0  0  0
   -0.1067   12.1902    0.0000 C   0  0  0  0  0  0  0  0  0  0  0  0
    0.6078   11.7777    0.0000 C   0  0  0  0  0  0  0  0  0  0  0  0
    0.6078   10.9527    0.0000 C   0  0  0  0  0  0  0  0  0  0  0  0
   -0.1067   10.5402    0.0000 C   0  0  0  0  0  0  0  0  0  0  0  0
   -0.1067    9.7152    0.0000 N   0  0  0  0  0  0  0  0  0  0  0  0
    0.6078    9.3027    0.0000 C   0  0  0  0  0  0  0  0  0  0  0  0
    1.3222    9.7152    0.0000 O   0  0  0  0  0  0  0  0  0  0  0  0
    0.6078    8.4777    0.0000 C   0  0  0  0  0  0  0  0  0  0  0  0
    1.3222    8.0652    0.0000 C   0  0  0  0  0  0  0  0  0  0  0  0
    1.3222    7.2402    0.0000 C   0  0  0  0  0  0  0  0  0  0  0  0
    0.6078    6.8277    0.0000 C   0  0  0  0  0  0  0  0  0  0  0  0
   -0.1067    7.2402    0.0000 C   0  0  0  0  0  0  0  0  0  0  0  0
   -0.1067    8.0652    0.0000 C   0  0  0  0  0  0  0  0  0  0  0  0
    0.6078    6.0027    0.0000 N   0  0  0  0  0  0  0  0  0  0  0  0
    1.3222    5.5902    0.0000 C   0  0  0  0  0  0  0  0  0  0  0  0
    2.0367    6.0027    0.0000 O   0  0  0  0  0  0  0  0  0  0  0  0
    1.3222    4.7652    0.0000 C   0  0  0  0  0  0  0  0  0  0  0  0
    2.0367    4.3527    0.0000 N   0  0  0  0  0  0  0  0  0  0  0  0
    2.7512    4.7652    0.0000 C   0  0  0  0  0  0  0  0  0  0  0  0
    2.7512    5.5902    0.0000 O   0  0  0  0  0  0  0  0  0  0  0  0
    3.4656    4.3527    0.0000 C   0  0  0  0  0  0  0  0  0  0  0  0
    4.1801    4.7652    0.0000 F   0  0  0  0  0  0  0  0  0  0  0  0
    3.4656    3.5277    0.0000 C   0  0  0  0  0  0  0  0  0  0  0  0
    2.7512    3.1152    0.0000 N   0  0  0  0  0  0  0  0  0  0  0  0
    2.0367    3.5277    0.0000 C   0  0  0  0  0  0  0  0  0  0  0  0
    1.3222    3.1152    0.0000 O   0  0  0  0  0  0  0  0  0  0  0  0
    2.7512    2.2902    0.0000 C   0  0  0  0  0  0  0  0  0  0  0  0
    3.4186    1.8053    0.0000 C   0  0  0  0  0  0  0  0  0  0  0  0
    3.1637    1.0206    0.0000 C   0  0  0  0  0  0  0  0  0  0  0  0
    2.3387    1.0206    0.0000 C   0  0  0  0  0  0  0  0  0  0  0  0
    2.0837    1.8053    0.0000 O   0  0  0  0  0  0  0  0  0  0  0  0
  1  2  1  0  0  0  0
  2  3  1  0  0  0  0
  3  4  1  0  0  0  0
  4  5  2  0  0  0  0
  5  6  1  0  0  0  0
  6  7  2  0  0  0  0
  7  8  1  0  0  0  0
  3  8  2  0  0  0  0
  8  9  1  0  0  0  0
  9 10  1  0  0  0  0
 10 11  2  0  0  0  0
 10 12  1  0  0  0  0
 12 13  1  0  0  0  0
 13 14  2  0  0  0  0
 14 15  1  0  0  0  0
 15 16  2  0  0  0  0
 16 17  1  0  0  0  0
 12 17  2  0  0  0  0
 15 18  1  0  0  0  0
 18 19  1  0  0  0  0
 19 20  2  0  0  0  0
 19 21  1  0  0  0  0
 21 22  1  0  0  0  0
 22 23  1  0  0  0  0
 23 24  2  0  0  0  0
 23 25  1  0  0  0  0
 25 26  1  0  0  0  0
 25 27  2  0  0  0  0
 27 28  1  0  0  0  0
 28 29  1  0  0  0  0
 22 29  1  0  0  0  0
 29 30  2  0  0  0  0
 28 31  1  0  0  0  0
 31 32  1  0  0  0  0
 32 33  1  0  0  0  0
 33 34  1  0  0  0  0
 34 35  1  0  0  0  0
 31 35  1  0  0  0  0
M  END
>  <Catalog ID>
Z94558674

>  <Plate_ID>
2026983-X50-01

>  <Well>
F03

>  <V, µL>
50

>  <Conc, mM>
10

>  <Formula>
C24H23FN4O6

>  <MW>
482.461

>  <Purity>
90.2

>  <PO>
5A-64168

>  <MW_salt>
0

>  <Stereochem.data>
Racemic or presumed racemic or meso

>  <Geometric.isomer>
None

>  <Chemical name>
4-{2-[5-fluoro-2,6-dioxo-3-(oxolan-2-yl)-1,2,3,6-tetrahydropyrimidin-1-yl]acetamido}-N-(2-methoxyphenyl)benzamide

>  <ClogP>
2,333

>  <logS>
-4,35

>  <HBD>
2

>  <HBA>
6

>  <TPSA>
117,28

>  <RotBonds>
7

$$$$

  Mrv1925 04172511352D          

 27 30  0  0  0  0            999 V2000
   -0.7145   -1.2375    0.0000 O   0  0  0  0  0  0  0  0  0  0  0  0
   -0.7145   -0.4125    0.0000 C   0  0  0  0  0  0  0  0  0  0  0  0
   -1.4289    0.0000    0.0000 C   0  0  0  0  0  0  0  0  0  0  0  0
   -2.1434   -0.4125    0.0000 F   0  0  0  0  0  0  0  0  0  0  0  0
   -1.4289    0.8250    0.0000 C   0  0  0  0  0  0  0  0  0  0  0  0
   -0.7145    1.2375    0.0000 N   0  0  0  0  0  0  0  0  0  0  0  0
    0.0000    0.8250    0.0000 C   0  0  0  0  0  0  0  0  0  0  0  0
    0.7145    1.2375    0.0000 O   0  0  0  0  0  0  0  0  0  0  0  0
    0.0000   -0.0000    0.0000 N   0  0  0  0  0  0  0  0  0  0  0  0
    0.7145   -0.4125    0.0000 C   0  0  0  0  0  0  0  0  0  0  0  0
    0.7145   -1.2375    0.0000 C   0  0  0  0  0  0  0  0  0  0  0  0
    1.3819   -1.7224    0.0000 N   0  0  0  0  0  0  0  0  0  0  0  0
    1.1270   -2.5070    0.0000 N   0  0  0  0  0  0  0  0  0  0  0  0
    0.3020   -2.5070    0.0000 C   0  0  0  0  0  0  0  0  0  0  0  0
    0.0470   -1.7224    0.0000 O   0  0  0  0  0  0  0  0  0  0  0  0
   -0.1830   -3.1745    0.0000 C   0  0  0  0  0  0  0  0  0  0  0  0
    0.1526   -3.9282    0.0000 C   0  0  0  0  0  0  0  0  0  0  0  0
   -0.3323   -4.5956    0.0000 C   0  0  0  0  0  0  0  0  0  0  0  0
   -1.1528   -4.5094    0.0000 C   0  0  0  0  0  0  0  0  0  0  0  0
   -1.6377   -5.1768    0.0000 Br  0  0  0  0  0  0  0  0  0  0  0  0
   -1.4884   -3.7557    0.0000 C   0  0  0  0  0  0  0  0  0  0  0  0
   -1.0034   -3.0882    0.0000 C   0  0  0  0  0  0  0  0  0  0  0  0
   -0.7145    2.0625    0.0000 C   0  0  0  0  0  0  0  0  0  0  0  0
   -1.3819    2.5474    0.0000 C   0  0  0  0  0  0  0  0  0  0  0  0
   -1.1270    3.3320    0.0000 C   0  0  0  0  0  0  0  0  0  0  0  0
   -0.3020    3.3320    0.0000 C   0  0  0  0  0  0  0  0  0  0  0  0
   -0.0470    2.5474    0.0000 O   0  0  0  0  0  0  0  0  0  0  0  0
  1  2  2  0  0  0  0
  2  3  1  0  0  0  0
  3  4  1  0  0  0  0
  3  5  2  0  0  0  0
  5  6  1  0  0  0  0
  6  7  1  0  0  0  0
  7  8  2  0  0  0  0
  7  9  1  0  0  0  0
  2  9  1  0  0  0  0
  9 10  1  0  0  0  0
 10 11  1  0  0  0  0
 11 12  2  0  0  0  0
 12 13  1  0  0  0  0
 13 14  2  0  0  0  0
 14 15  1  0  0  0  0
 11 15  1  0  0  0  0
 14 16  1  0  0  0  0
 16 17  1  0  0  0  0
 17 18  2  0  0  0  0
 18 19  1  0  0  0  0
 19 20  1  0  0  0  0
 19 21  2  0  0  0  0
 21 22  1  0  0  0  0
 16 22  2  0  0  0  0
  6 23  1  0  0  0  0
 23 24  1  0  0  0  0
 24 25  1  0  0  0  0
 25 26  1  0  0  0  0
 26 27  1  0  0  0  0
 23 27  1  0  0  0  0
M  END
>  <Catalog ID>
Z107296100

>  <Plate_ID>
2026983-X50-01

>  <Well>
G03

>  <V, µL>
50

>  <Conc, mM>
10

>  <Formula>
C17H14BrFN4O4

>  <MW>
437.2199

>  <Purity>
94.66

>  <PO>
5A-64168

>  <MW_salt>
0

>  <Stereochem.data>
Racemic or presumed racemic or meso

>  <Geometric.isomer>
None

>  <Chemical name>
3-{[5-(4-bromophenyl)-1,3,4-oxadiazol-2-yl]methyl}-5-fluoro-1-(oxolan-2-yl)-1,2,3,4-tetrahydropyrimidine-2,4-dione

>  <ClogP>
1,808

>  <logS>
-3,98

>  <HBD>
0

>  <HBA>
5

>  <TPSA>
88,77

>  <RotBonds>
4

$$$$

  Mrv1925 04172511352D          

 25 28  0  0  0  0            999 V2000
    1.4289   -2.4750    0.0000 O   0  0  0  0  0  0  0  0  0  0  0  0
    0.7145   -2.8875    0.0000 C   0  0  0  0  0  0  0  0  0  0  0  0
    0.7145   -3.7125    0.0000 C   0  0  0  0  0  0  0  0  0  0  0  0
    1.4289   -4.1250    0.0000 F   0  0  0  0  0  0  0  0  0  0  0  0
    0.0000   -4.1250    0.0000 C   0  0  0  0  0  0  0  0  0  0  0  0
   -0.7145   -3.7125    0.0000 N   0  0  0  0  0  0  0  0  0  0  0  0
   -0.7145   -2.8875    0.0000 C   0  0  0  0  0  0  0  0  0  0  0  0
   -1.4289   -2.4750    0.0000 O   0  0  0  0  0  0  0  0  0  0  0  0
    0.0000   -2.4750    0.0000 N   0  0  0  0  0  0  0  0  0  0  0  0
    0.0000   -1.6500    0.0000 C   0  0  0  0  0  0  0  0  0  0  0  0
    0.7145   -1.2375    0.0000 C   0  0  0  0  0  0  0  0  0  0  0  0
    0.7145   -0.4125    0.0000 C   0  0  0  0  0  0  0  0  0  0  0  0
    1.4289    0.0000    0.0000 C   0  0  0  0  0  0  0  0  0  0  0  0
    2.1434   -0.4125    0.0000 C   0  0  0  0  0  0  0  0  0  0  0  0
    2.8579    0.0000    0.0000 C   0  0  0  0  0  0  0  0  0  0  0  0
    3.5724   -0.4125    0.0000 C   0  0  0  0  0  0  0  0  0  0  0  0
    3.5724   -1.2375    0.0000 C   0  0  0  0  0  0  0  0  0  0  0  0
    2.8579   -1.6500    0.0000 C   0  0  0  0  0  0  0  0  0  0  0  0
    2.1434   -1.2375    0.0000 C   0  0  0  0  0  0  0  0  0  0  0  0
    1.4289   -1.6500    0.0000 N   0  0  0  0  0  0  0  0  0  0  0  0
   -1.4289   -4.1250    0.0000 C   0  0  0  0  0  0  0  0  0  0  0  0
   -1.5152   -4.9455    0.0000 C   0  0  0  0  0  0  0  0  0  0  0  0
   -2.3221   -5.1170    0.0000 C   0  0  0  0  0  0  0  0  0  0  0  0
   -2.7346   -4.4025    0.0000 C   0  0  0  0  0  0  0  0  0  0  0  0
   -2.1826   -3.7894    0.0000 O   0  0  0  0  0  0  0  0  0  0  0  0
  1  2  2  0  0  0  0
  2  3  1  0  0  0  0
  3  4  1  0  0  0  0
  3  5  2  0  0  0  0
  5  6  1  0  0  0  0
  6  7  1  0  0  0  0
  7  8  2  0  0  0  0
  7  9  1  0  0  0  0
  2  9  1  0  0  0  0
  9 10  1  0  0  0  0
 10 11  1  0  0  0  0
 11 12  1  0  0  0  0
 12 13  2  0  0  0  0
 13 14  1  0  0  0  0
 14 15  1  0  0  0  0
 15 16  2  0  0  0  0
 16 17  1  0  0  0  0
 17 18  2  0  0  0  0
 18 19  1  0  0  0  0
 14 19  2  0  0  0  0
 19 20  1  0  0  0  0
 11 20  2  0  0  0  0
  6 21  1  0  0  0  0
 21 22  1  0  0  0  0
 22 23  1  0  0  0  0
 23 24  1  0  0  0  0
 24 25  1  0  0  0  0
 21 25  1  0  0  0  0
M  END
>  <Catalog ID>
Z107297130

>  <Plate_ID>
2026983-X50-01

>  <Well>
H03

>  <V, µL>
50

>  <Conc, mM>
10

>  <Formula>
C18H16FN3O3

>  <MW>
341.3363

>  <Purity>
98.66

>  <PO>
5A-64168

>  <MW_salt>
0

>  <Stereochem.data>
Racemic or presumed racemic or meso

>  <Geometric.isomer>
None

>  <Chemical name>
5-fluoro-1-(oxolan-2-yl)-3-[(quinolin-2-yl)methyl]-1,2,3,4-tetrahydropyrimidine-2,4-dione

>  <ClogP>
2,252

>  <logS>
-3,03

>  <HBD>
0

>  <HBA>
4

>  <TPSA>
62,74

>  <RotBonds>
3

$$$$

  Mrv1925 04172511352D          

 18 19  0  0  0  0            999 V2000
    4.2868   -1.6500    0.0000 O   0  0  0  0  0  0  0  0  0  0  0  0
    3.5724   -1.2375    0.0000 C   0  0  0  0  0  0  0  0  0  0  0  0
    2.8579   -1.6500    0.0000 C   0  0  0  0  0  0  0  0  0  0  0  0
    2.8579   -2.4750    0.0000 N   0  0  0  0  0  0  0  0  0  0  0  0
    3.5724   -2.8875    0.0000 C   0  0  0  0  0  0  0  0  0  0  0  0
    3.5724   -3.7125    0.0000 C   0  0  0  0  0  0  0  0  0  0  0  0
    2.8579   -4.1250    0.0000 C   0  0  0  0  0  0  0  0  0  0  0  0
    2.8579   -4.9500    0.0000 O   0  0  0  0  0  0  0  0  0  0  0  0
    2.1434   -3.7125    0.0000 N   0  0  0  0  0  0  0  0  0  0  0  0
    2.1434   -2.8875    0.0000 C   0  0  0  0  0  0  0  0  0  0  0  0
    1.4289   -2.4750    0.0000 O   0  0  0  0  0  0  0  0  0  0  0  0
    3.5724   -0.4125    0.0000 N   0  0  0  0  0  0  0  0  0  0  0  0
    4.2868    0.0000    0.0000 C   0  0  0  0  0  0  0  0  0  0  0  0
    4.2868    0.8250    0.0000 C   0  0  0  0  0  0  0  0  0  0  0  0
    5.0013    1.2375    0.0000 C   0  0  0  0  0  0  0  0  0  0  0  0
    5.7158    0.8250    0.0000 C   0  0  0  0  0  0  0  0  0  0  0  0
    5.7158   -0.0000    0.0000 C   0  0  0  0  0  0  0  0  0  0  0  0
    5.0013   -0.4125    0.0000 C   0  0  0  0  0  0  0  0  0  0  0  0
  1  2  2  0  0  0  0
  2  3  1  0  0  0  0
  3  4  1  0  0  0  0
  4  5  1  0  0  0  0
  5  6  2  0  0  0  0
  6  7  1  0  0  0  0
  7  8  2  0  0  0  0
  7  9  1  0  0  0  0
  9 10  1  0  0  0  0
  4 10  1  0  0  0  0
 10 11  2  0  0  0  0
  2 12  1  0  0  0  0
 12 13  1  0  0  0  0
 13 14  1  0  0  0  0
 14 15  2  0  0  0  0
 15 16  1  0  0  0  0
 16 17  2  0  0  0  0
 17 18  1  0  0  0  0
 13 18  2  0  0  0  0
M  END
>  <Catalog ID>
Z135402312

>  <Plate_ID>
2026983-X50-01

>  <Well>
A04

>  <V, µL>
50

>  <Conc, mM>
10

>  <Formula>
C12H11N3O3

>  <MW>
245.234

>  <Purity>
100

>  <PO>
5A-64168

>  <MW_salt>
0

>  <Stereochem.data>
Achiral

>  <Geometric.isomer>
None

>  <Chemical name>
2-(2,4-dioxo-1,2,3,4-tetrahydropyrimidin-1-yl)-N-phenylacetamide

>  <ClogP>
0,114

>  <logS>
-2,646

>  <HBD>
2

>  <HBA>
3

>  <TPSA>
78,51

>  <RotBonds>
3

$$$$

  Mrv1925 04172511352D          

 24 26  0  0  0  0            999 V2000
    2.1434   -1.2375    0.0000 O   0  0  0  0  0  0  0  0  0  0  0  0
    1.4289   -1.6500    0.0000 C   0  0  0  0  0  0  0  0  0  0  0  0
    1.4289   -2.4750    0.0000 C   0  0  0  0  0  0  0  0  0  0  0  0
    2.1434   -2.8875    0.0000 N   0  0  0  0  0  0  0  0  0  0  0  0
    2.8579   -2.4750    0.0000 C   0  0  0  0  0  0  0  0  0  0  0  0
    2.8579   -1.6500    0.0000 O   0  0  0  0  0  0  0  0  0  0  0  0
    3.5724   -2.8875    0.0000 C   0  0  0  0  0  0  0  0  0  0  0  0
    4.2868   -2.4750    0.0000 F   0  0  0  0  0  0  0  0  0  0  0  0
    3.5724   -3.7125    0.0000 C   0  0  0  0  0  0  0  0  0  0  0  0
    2.8579   -4.1250    0.0000 N   0  0  0  0  0  0  0  0  0  0  0  0
    2.1434   -3.7125    0.0000 C   0  0  0  0  0  0  0  0  0  0  0  0
    1.4289   -4.1250    0.0000 O   0  0  0  0  0  0  0  0  0  0  0  0
    2.8579   -4.9500    0.0000 C   0  0  0  0  0  0  0  0  0  0  0  0
    3.5253   -5.4349    0.0000 C   0  0  0  0  0  0  0  0  0  0  0  0
    3.2704   -6.2195    0.0000 C   0  0  0  0  0  0  0  0  0  0  0  0
    2.4454   -6.2195    0.0000 C   0  0  0  0  0  0  0  0  0  0  0  0
    2.1904   -5.4349    0.0000 O   0  0  0  0  0  0  0  0  0  0  0  0
    0.7145   -1.2375    0.0000 N   0  0  0  0  0  0  0  0  0  0  0  0
    0.7145   -0.4125    0.0000 C   0  0  0  0  0  0  0  0  0  0  0  0
    0.0000    0.0000    0.0000 C   0  0  0  0  0  0  0  0  0  0  0  0
    0.0000    0.8250    0.0000 C   0  0  0  0  0  0  0  0  0  0  0  0
    0.7145    1.2375    0.0000 C   0  0  0  0  0  0  0  0  0  0  0  0
    1.4289    0.8250    0.0000 C   0  0  0  0  0  0  0  0  0  0  0  0
    1.4289    0.0000    0.0000 C   0  0  0  0  0  0  0  0  0  0  0  0
  1  2  2  0  0  0  0
  2  3  1  0  0  0  0
  3  4  1  0  0  0  0
  4  5  1  0  0  0  0
  5  6  2  0  0  0  0
  5  7  1  0  0  0  0
  7  8  1  0  0  0  0
  7  9  2  0  0  0  0
  9 10  1  0  0  0  0
 10 11  1  0  0  0  0
  4 11  1  0  0  0  0
 11 12  2  0  0  0  0
 10 13  1  0  0  0  0
 13 14  1  0  0  0  0
 14 15  1  0  0  0  0
 15 16  1  0  0  0  0
 16 17  1  0  0  0  0
 13 17  1  0  0  0  0
  2 18  1  0  0  0  0
 18 19  1  0  0  0  0
 19 20  1  0  0  0  0
 20 21  2  0  0  0  0
 21 22  1  0  0  0  0
 22 23  2  0  0  0  0
 23 24  1  0  0  0  0
 19 24  2  0  0  0  0
M  END
>  <Catalog ID>
Z94556008

>  <Plate_ID>
2026983-X50-01

>  <Well>
B04

>  <V, µL>
50

>  <Conc, mM>
10

>  <Formula>
C16H16FN3O4

>  <MW>
333.3143

>  <Purity>
96.95

>  <PO>
5A-64168

>  <MW_salt>
0

>  <Stereochem.data>
Racemic or presumed racemic or meso

>  <Geometric.isomer>
None

>  <Chemical name>
2-[5-fluoro-2,6-dioxo-3-(oxolan-2-yl)-1,2,3,6-tetrahydropyrimidin-1-yl]-N-phenylacetamide

>  <ClogP>
2,046

>  <logS>
-2,46

>  <HBD>
1

>  <HBA>
4

>  <TPSA>
78,95

>  <RotBonds>
4

$$$$

  Mrv1925 04172511352D          

 29 31  0  0  0  0            999 V2000
   -0.7145   -4.5375    0.0000 C   0  0  0  0  0  0  0  0  0  0  0  0
   -0.7145   -3.7125    0.0000 O   0  0  0  0  0  0  0  0  0  0  0  0
   -1.4289   -3.3000    0.0000 C   0  0  0  0  0  0  0  0  0  0  0  0
   -2.1434   -3.7125    0.0000 C   0  0  0  0  0  0  0  0  0  0  0  0
   -2.8579   -3.3000    0.0000 C   0  0  0  0  0  0  0  0  0  0  0  0
   -2.8579   -2.4750    0.0000 C   0  0  0  0  0  0  0  0  0  0  0  0
   -3.5724   -2.0625    0.0000 C   0  0  0  0  0  0  0  0  0  0  0  0
   -2.1434   -2.0625    0.0000 C   0  0  0  0  0  0  0  0  0  0  0  0
   -1.4289   -2.4750    0.0000 C   0  0  0  0  0  0  0  0  0  0  0  0
   -0.7145   -2.0625    0.0000 C   0  0  0  0  0  0  0  0  0  0  0  0
   -0.7145   -1.2375    0.0000 C   0  0  0  0  0  0  0  0  0  0  0  0
    0.0000   -2.4750    0.0000 N   0  0  0  0  0  0  0  0  0  0  0  0
    0.7145   -2.0625    0.0000 C   0  0  0  0  0  0  0  0  0  0  0  0
    0.7145   -1.2375    0.0000 O   0  0  0  0  0  0  0  0  0  0  0  0
    1.4289   -2.4750    0.0000 C   0  0  0  0  0  0  0  0  0  0  0  0
    2.1434   -2.0625    0.0000 N   0  0  0  0  0  0  0  0  0  0  0  0
    2.1434   -1.2375    0.0000 C   0  0  0  0  0  0  0  0  0  0  0  0
    1.4289   -0.8250    0.0000 O   0  0  0  0  0  0  0  0  0  0  0  0
    2.8579   -0.8250    0.0000 C   0  0  0  0  0  0  0  0  0  0  0  0
    2.8579    0.0000    0.0000 F   0  0  0  0  0  0  0  0  0  0  0  0
    3.5724   -1.2375    0.0000 C   0  0  0  0  0  0  0  0  0  0  0  0
    3.5724   -2.0625    0.0000 N   0  0  0  0  0  0  0  0  0  0  0  0
    2.8579   -2.4750    0.0000 C   0  0  0  0  0  0  0  0  0  0  0  0
    2.8579   -3.3000    0.0000 O   0  0  0  0  0  0  0  0  0  0  0  0
    4.2868   -2.4750    0.0000 C   0  0  0  0  0  0  0  0  0  0  0  0
    5.0405   -2.1394    0.0000 C   0  0  0  0  0  0  0  0  0  0  0  0
    5.5925   -2.7525    0.0000 C   0  0  0  0  0  0  0  0  0  0  0  0
    5.1800   -3.4670    0.0000 C   0  0  0  0  0  0  0  0  0  0  0  0
    4.3731   -3.2955    0.0000 O   0  0  0  0  0  0  0  0  0  0  0  0
  1  2  1  0  0  0  0
  2  3  1  0  0  0  0
  3  4  1  0  0  0  0
  4  5  2  0  0  0  0
  5  6  1  0  0  0  0
  6  7  1  0  0  0  0
  6  8  2  0  0  0  0
  8  9  1  0  0  0  0
  3  9  2  0  0  0  0
  9 10  1  0  0  0  0
 10 11  1  0  0  0  0
 10 12  1  0  0  0  0
 12 13  1  0  0  0  0
 13 14  2  0  0  0  0
 13 15  1  0  0  0  0
 15 16  1  0  0  0  0
 16 17  1  0  0  0  0
 17 18  2  0  0  0  0
 17 19  1  0  0  0  0
 19 20  1  0  0  0  0
 19 21  2  0  0  0  0
 21 22  1  0  0  0  0
 22 23  1  0  0  0  0
 16 23  1  0  0  0  0
 23 24  2  0  0  0  0
 22 25  1  0  0  0  0
 25 26  1  0  0  0  0
 26 27  1  0  0  0  0
 27 28  1  0  0  0  0
 28 29  1  0  0  0  0
 25 29  1  0  0  0  0
M  END
>  <Catalog ID>
Z278136686

>  <Plate_ID>
2026983-X50-01

>  <Well>
C04

>  <V, µL>
50

>  <Conc, mM>
10

>  <Formula>
C20H24FN3O5

>  <MW>
405.4201

>  <Purity>
96.42

>  <PO>
5A-64168

>  <MW_salt>
0

>  <Stereochem.data>
Diastereomeric mixture

>  <Geometric.isomer>
None

>  <Chemical name>
2-[5-fluoro-2,6-dioxo-3-(oxolan-2-yl)-1,2,3,6-tetrahydropyrimidin-1-yl]-N-[1-(2-methoxy-5-methylphenyl)ethyl]acetamide

>  <ClogP>
2,798

>  <logS>
-3,06

>  <HBD>
1

>  <HBA>
5

>  <TPSA>
88,18

>  <RotBonds>
6

$$$$

  Mrv1925 04172511352D          

 25 27  0  0  0  0            999 V2000
    0.7145   -3.7125    0.0000 C   0  0  0  0  0  0  0  0  0  0  0  0
    0.7145   -2.8875    0.0000 C   0  0  0  0  0  0  0  0  0  0  0  0
    1.4289   -2.4750    0.0000 N   0  0  0  0  0  0  0  0  0  0  0  0
    2.1434   -2.8875    0.0000 C   0  0  0  0  0  0  0  0  0  0  0  0
    2.1434   -3.7125    0.0000 O   0  0  0  0  0  0  0  0  0  0  0  0
    2.8579   -2.4750    0.0000 C   0  0  0  0  0  0  0  0  0  0  0  0
    3.5724   -2.8875    0.0000 N   0  0  0  0  0  0  0  0  0  0  0  0
    4.2868   -2.4750    0.0000 C   0  0  0  0  0  0  0  0  0  0  0  0
    4.2868   -1.6500    0.0000 O   0  0  0  0  0  0  0  0  0  0  0  0
    5.0013   -2.8875    0.0000 C   0  0  0  0  0  0  0  0  0  0  0  0
    5.7158   -2.4750    0.0000 F   0  0  0  0  0  0  0  0  0  0  0  0
    5.0013   -3.7125    0.0000 C   0  0  0  0  0  0  0  0  0  0  0  0
    4.2868   -4.1250    0.0000 N   0  0  0  0  0  0  0  0  0  0  0  0
    3.5724   -3.7125    0.0000 C   0  0  0  0  0  0  0  0  0  0  0  0
    2.8579   -4.1250    0.0000 O   0  0  0  0  0  0  0  0  0  0  0  0
    4.2868   -4.9500    0.0000 C   0  0  0  0  0  0  0  0  0  0  0  0
    4.9543   -5.4349    0.0000 C   0  0  0  0  0  0  0  0  0  0  0  0
    4.6993   -6.2195    0.0000 C   0  0  0  0  0  0  0  0  0  0  0  0
    3.8743   -6.2195    0.0000 C   0  0  0  0  0  0  0  0  0  0  0  0
    3.6194   -5.4349    0.0000 O   0  0  0  0  0  0  0  0  0  0  0  0
    0.0000   -2.4750    0.0000 C   0  0  0  0  0  0  0  0  0  0  0  0
   -0.7537   -2.8106    0.0000 C   0  0  0  0  0  0  0  0  0  0  0  0
   -1.3057   -2.1975    0.0000 C   0  0  0  0  0  0  0  0  0  0  0  0
   -0.8932   -1.4830    0.0000 C   0  0  0  0  0  0  0  0  0  0  0  0
   -0.0862   -1.6545    0.0000 O   0  0  0  0  0  0  0  0  0  0  0  0
  1  2  1  0  0  0  0
  2  3  1  0  0  0  0
  3  4  1  0  0  0  0
  4  5  2  0  0  0  0
  4  6  1  0  0  0  0
  6  7  1  0  0  0  0
  7  8  1  0  0  0  0
  8  9  2  0  0  0  0
  8 10  1  0  0  0  0
 10 11  1  0  0  0  0
 10 12  2  0  0  0  0
 12 13  1  0  0  0  0
 13 14  1  0  0  0  0
  7 14  1  0  0  0  0
 14 15  2  0  0  0  0
 13 16  1  0  0  0  0
 16 17  1  0  0  0  0
 17 18  1  0  0  0  0
 18 19  1  0  0  0  0
 19 20  1  0  0  0  0
 16 20  1  0  0  0  0
  2 21  1  0  0  0  0
 21 22  2  0  0  0  0
 22 23  1  0  0  0  0
 23 24  2  0  0  0  0
 24 25  1  0  0  0  0
 21 25  1  0  0  0  0
M  END
>  <Catalog ID>
Z282038648

>  <Plate_ID>
2026983-X50-01

>  <Well>
D04

>  <V, µL>
50

>  <Conc, mM>
10

>  <Formula>
C16H18FN3O5

>  <MW>
351.3296

>  <Purity>
100

>  <PO>
5A-64168

>  <MW_salt>
0

>  <Stereochem.data>
Diastereomeric mixture

>  <Geometric.isomer>
None

>  <Chemical name>
2-[5-fluoro-2,6-dioxo-3-(oxolan-2-yl)-1,2,3,6-tetrahydropyrimidin-1-yl]-N-[1-(furan-2-yl)ethyl]acetamide

>  <ClogP>
1,556

>  <logS>
-1,99

>  <HBD>
1

>  <HBA>
4

>  <TPSA>
92,09

>  <RotBonds>
5

$$$$

  Mrv1925 04172511352D          

 27 29  0  0  0  0            999 V2000
   -2.2501    7.6527    0.0000 C   0  0  0  0  0  0  0  0  0  0  0  0
   -1.5356    7.2402    0.0000 S   0  0  0  0  0  0  0  0  0  0  0  0
   -1.9481    6.5257    0.0000 O   0  0  0  0  0  0  0  0  0  0  0  0
   -1.1231    7.9547    0.0000 O   0  0  0  0  0  0  0  0  0  0  0  0
   -0.8212    6.8277    0.0000 N   0  0  0  0  0  0  0  0  0  0  0  0
   -0.1067    7.2402    0.0000 C   0  0  0  0  0  0  0  0  0  0  0  0
    0.6078    6.8277    0.0000 C   0  0  0  0  0  0  0  0  0  0  0  0
    0.6078    6.0027    0.0000 N   0  0  0  0  0  0  0  0  0  0  0  0
   -0.1067    5.5902    0.0000 C   0  0  0  0  0  0  0  0  0  0  0  0
   -0.8212    6.0027    0.0000 C   0  0  0  0  0  0  0  0  0  0  0  0
    1.3222    5.5902    0.0000 C   0  0  0  0  0  0  0  0  0  0  0  0
    2.0367    6.0027    0.0000 O   0  0  0  0  0  0  0  0  0  0  0  0
    1.3222    4.7652    0.0000 C   0  0  0  0  0  0  0  0  0  0  0  0
    2.0367    4.3527    0.0000 N   0  0  0  0  0  0  0  0  0  0  0  0
    2.7512    4.7652    0.0000 C   0  0  0  0  0  0  0  0  0  0  0  0
    2.7512    5.5902    0.0000 O   0  0  0  0  0  0  0  0  0  0  0  0
    3.4656    4.3527    0.0000 C   0  0  0  0  0  0  0  0  0  0  0  0
    4.1801    4.7652    0.0000 F   0  0  0  0  0  0  0  0  0  0  0  0
    3.4656    3.5277    0.0000 C   0  0  0  0  0  0  0  0  0  0  0  0
    2.7512    3.1152    0.0000 N   0  0  0  0  0  0  0  0  0  0  0  0
    2.0367    3.5277    0.0000 C   0  0  0  0  0  0  0  0  0  0  0  0
    1.3222    3.1152    0.0000 O   0  0  0  0  0  0  0  0  0  0  0  0
    2.7512    2.2902    0.0000 C   0  0  0  0  0  0  0  0  0  0  0  0
    3.4186    1.8053    0.0000 C   0  0  0  0  0  0  0  0  0  0  0  0
    3.1637    1.0206    0.0000 C   0  0  0  0  0  0  0  0  0  0  0  0
    2.3387    1.0206    0.0000 C   0  0  0  0  0  0  0  0  0  0  0  0
    2.0837    1.8053    0.0000 O   0  0  0  0  0  0  0  0  0  0  0  0
  1  2  1  0  0  0  0
  2  3  2  0  0  0  0
  2  4  2  0  0  0  0
  2  5  1  0  0  0  0
  5  6  1  0  0  0  0
  6  7  1  0  0  0  0
  7  8  1  0  0  0  0
  8  9  1  0  0  0  0
  9 10  1  0  0  0  0
  5 10  1  0  0  0  0
  8 11  1  0  0  0  0
 11 12  2  0  0  0  0
 11 13  1  0  0  0  0
 13 14  1  0  0  0  0
 14 15  1  0  0  0  0
 15 16  2  0  0  0  0
 15 17  1  0  0  0  0
 17 18  1  0  0  0  0
 17 19  2  0  0  0  0
 19 20  1  0  0  0  0
 20 21  1  0  0  0  0
 14 21  1  0  0  0  0
 21 22  2  0  0  0  0
 20 23  1  0  0  0  0
 23 24  1  0  0  0  0
 24 25  1  0  0  0  0
 25 26  1  0  0  0  0
 26 27  1  0  0  0  0
 23 27  1  0  0  0  0
M  END
>  <Catalog ID>
Z286114864

>  <Plate_ID>
2026983-X50-01

>  <Well>
E04

>  <V, µL>
50

>  <Conc, mM>
10

>  <Formula>
C15H21FN4O6S

>  <MW>
404.4138

>  <Purity>
100

>  <PO>
5A-64168

>  <MW_salt>
0

>  <Stereochem.data>
Racemic or presumed racemic or meso

>  <Geometric.isomer>
None

>  <Chemical name>
5-fluoro-3-[2-(4-methanesulfonylpiperazin-1-yl)-2-oxoethyl]-1-(oxolan-2-yl)-1,2,3,4-tetrahydropyrimidine-2,4-dione

>  <ClogP>
0,741

>  <logS>
-1,04

>  <HBD>
0

>  <HBA>
6

>  <TPSA>
107,54

>  <RotBonds>
3

$$$$

  Mrv1925 04172511352D          

 23 25  0  0  0  0            999 V2000
   -0.8212    7.6527    0.0000 N   0  0  0  0  0  0  0  0  0  0  0  0
   -0.1067    7.2402    0.0000 C   0  0  0  0  0  0  0  0  0  0  0  0
    0.6078    6.8277    0.0000 C   0  0  0  0  0  0  0  0  0  0  0  0
    1.3222    7.2402    0.0000 C   0  0  0  0  0  0  0  0  0  0  0  0
    2.0367    6.8277    0.0000 C   0  0  0  0  0  0  0  0  0  0  0  0
    2.0367    6.0027    0.0000 C   0  0  0  0  0  0  0  0  0  0  0  0
    1.3222    5.5902    0.0000 C   0  0  0  0  0  0  0  0  0  0  0  0
    0.6078    6.0027    0.0000 C   0  0  0  0  0  0  0  0  0  0  0  0
    1.3222    4.7652    0.0000 C   0  0  0  0  0  0  0  0  0  0  0  0
    2.0367    4.3527    0.0000 N   0  0  0  0  0  0  0  0  0  0  0  0
    2.7512    4.7652    0.0000 C   0  0  0  0  0  0  0  0  0  0  0  0
    2.7512    5.5902    0.0000 O   0  0  0  0  0  0  0  0  0  0  0  0
    3.4656    4.3527    0.0000 C   0  0  0  0  0  0  0  0  0  0  0  0
    4.1801    4.7652    0.0000 F   0  0  0  0  0  0  0  0  0  0  0  0
    3.4656    3.5277    0.0000 C   0  0  0  0  0  0  0  0  0  0  0  0
    2.7512    3.1152    0.0000 N   0  0  0  0  0  0  0  0  0  0  0  0
    2.0367    3.5277    0.0000 C   0  0  0  0  0  0  0  0  0  0  0  0
    1.3222    3.1152    0.0000 O   0  0  0  0  0  0  0  0  0  0  0  0
    2.7512    2.2902    0.0000 C   0  0  0  0  0  0  0  0  0  0  0  0
    3.4186    1.8053    0.0000 C   0  0  0  0  0  0  0  0  0  0  0  0
    3.1637    1.0206    0.0000 C   0  0  0  0  0  0  0  0  0  0  0  0
    2.3387    1.0206    0.0000 C   0  0  0  0  0  0  0  0  0  0  0  0
    2.0837    1.8053    0.0000 O   0  0  0  0  0  0  0  0  0  0  0  0
  1  2  3  0  0  0  0
  2  3  1  0  0  0  0
  3  4  1  0  0  0  0
  4  5  2  0  0  0  0
  5  6  1  0  0  0  0
  6  7  2  0  0  0  0
  7  8  1  0  0  0  0
  3  8  2  0  0  0  0
  7  9  1  0  0  0  0
  9 10  1  0  0  0  0
 10 11  1  0  0  0  0
 11 12  2  0  0  0  0
 11 13  1  0  0  0  0
 13 14  1  0  0  0  0
 13 15  2  0  0  0  0
 15 16  1  0  0  0  0
 16 17  1  0  0  0  0
 10 17  1  0  0  0  0
 17 18  2  0  0  0  0
 16 19  1  0  0  0  0
 19 20  1  0  0  0  0
 20 21  1  0  0  0  0
 21 22  1  0  0  0  0
 22 23  1  0  0  0  0
 19 23  1  0  0  0  0
M  END
>  <Catalog ID>
Z229664396

>  <Plate_ID>
2026983-X50-01

>  <Well>
F04

>  <V, µL>
50

>  <Conc, mM>
10

>  <Formula>
C16H14FN3O3

>  <MW>
315.2991

>  <Purity>
95

>  <PO>
5A-64168

>  <MW_salt>
0

>  <Stereochem.data>
Racemic or presumed racemic or meso

>  <Geometric.isomer>
None

>  <Chemical name>
3-{[5-fluoro-2,6-dioxo-3-(oxolan-2-yl)-1,2,3,6-tetrahydropyrimidin-1-yl]methyl}benzonitrile

>  <ClogP>
1,798

>  <logS>
-2,58

>  <HBD>
0

>  <HBA>
4

>  <TPSA>
73,64

>  <RotBonds>
3

$$$$

  Mrv1925 04172511352D          

 17 18  0  0  0  0            999 V2000
   -1.0164    4.0145    0.0000 C   0  0  0  0  0  0  0  0  0  0  0  0
   -0.3020    4.4270    0.0000 O   0  0  0  0  0  0  0  0  0  0  0  0
    0.4125    4.0145    0.0000 C   0  0  0  0  0  0  0  0  0  0  0  0
    1.1270    4.4270    0.0000 C   0  0  0  0  0  0  0  0  0  0  0  0
    1.8414    4.0145    0.0000 N   0  0  0  0  0  0  0  0  0  0  0  0
    2.5559    4.4270    0.0000 C   0  0  0  0  0  0  0  0  0  0  0  0
    2.5559    5.2520    0.0000 O   0  0  0  0  0  0  0  0  0  0  0  0
    3.2704    4.0145    0.0000 C   0  0  0  0  0  0  0  0  0  0  0  0
    3.9849    4.4270    0.0000 C   0  0  0  0  0  0  0  0  0  0  0  0
    4.6993    4.8395    0.0000 N   0  0  0  0  0  0  0  0  0  0  0  0
    3.2704    3.1895    0.0000 C   0  0  0  0  0  0  0  0  0  0  0  0
    2.5559    2.7770    0.0000 N   0  0  0  0  0  0  0  0  0  0  0  0
    1.8414    3.1895    0.0000 C   0  0  0  0  0  0  0  0  0  0  0  0
    1.1270    2.7770    0.0000 O   0  0  0  0  0  0  0  0  0  0  0  0
    2.5559    1.9520    0.0000 C   0  0  0  0  0  0  0  0  0  0  0  0
    2.9684    1.2375    0.0000 C   0  0  0  0  0  0  0  0  0  0  0  0
    2.1434    1.2375    0.0000 C   0  0  0  0  0  0  0  0  0  0  0  0
  1  2  1  0  0  0  0
  2  3  1  0  0  0  0
  3  4  1  0  0  0  0
  4  5  1  0  0  0  0
  5  6  1  0  0  0  0
  6  7  2  0  0  0  0
  6  8  1  0  0  0  0
  8  9  1  0  0  0  0
  9 10  3  0  0  0  0
  8 11  2  0  0  0  0
 11 12  1  0  0  0  0
 12 13  1  0  0  0  0
  5 13  1  0  0  0  0
 13 14  2  0  0  0  0
 12 15  1  0  0  0  0
 15 16  1  0  0  0  0
 16 17  1  0  0  0  0
 15 17  1  0  0  0  0
M  END
>  <Catalog ID>
Z356370146

>  <Plate_ID>
2026983-X50-01

>  <Well>
G04

>  <V, µL>
50

>  <Conc, mM>
10

>  <Formula>
C11H13N3O3

>  <MW>
235.2392

>  <Purity>
99

>  <PO>
5A-64168

>  <MW_salt>
0

>  <Stereochem.data>
Achiral

>  <Geometric.isomer>
None

>  <Chemical name>
1-cyclopropyl-3-(2-methoxyethyl)-2,4-dioxo-1,2,3,4-tetrahydropyrimidine-5-carbonitrile

>  <ClogP>
0,622

>  <logS>
-0,67

>  <HBD>
0

>  <HBA>
4

>  <TPSA>
73,64

>  <RotBonds>
4

$$$$

  Mrv1925 04172511352D          

 30 32  0  0  0  0            999 V2000
   -2.8579   -5.7750    0.0000 C   0  0  0  0  0  0  0  0  0  0  0  0
   -2.8579   -4.9500    0.0000 C   0  0  0  0  0  0  0  0  0  0  0  0
   -3.5724   -4.5375    0.0000 C   0  0  0  0  0  0  0  0  0  0  0  0
   -3.5724   -3.7125    0.0000 C   0  0  0  0  0  0  0  0  0  0  0  0
   -2.8579   -3.3000    0.0000 C   0  0  0  0  0  0  0  0  0  0  0  0
   -2.1434   -3.7125    0.0000 C   0  0  0  0  0  0  0  0  0  0  0  0
   -1.4289   -3.3000    0.0000 N   0  0  0  0  0  0  0  0  0  0  0  0
   -0.7145   -3.7125    0.0000 C   0  0  0  0  0  0  0  0  0  0  0  0
   -0.7145   -4.5375    0.0000 O   0  0  0  0  0  0  0  0  0  0  0  0
    0.0000   -3.3000    0.0000 C   0  0  0  0  0  0  0  0  0  0  0  0
    0.7145   -3.7125    0.0000 N   0  0  0  0  0  0  0  0  0  0  0  0
    1.4289   -3.3000    0.0000 C   0  0  0  0  0  0  0  0  0  0  0  0
    1.4289   -2.4750    0.0000 O   0  0  0  0  0  0  0  0  0  0  0  0
    2.1434   -3.7125    0.0000 C   0  0  0  0  0  0  0  0  0  0  0  0
    2.8579   -3.3000    0.0000 N   0  0  0  0  0  0  0  0  0  0  0  0
    2.8579   -2.4750    0.0000 C   0  0  0  0  0  0  0  0  0  0  0  0
    2.1434   -2.0625    0.0000 O   0  0  0  0  0  0  0  0  0  0  0  0
    3.5724   -2.0625    0.0000 C   0  0  0  0  0  0  0  0  0  0  0  0
    3.5724   -1.2375    0.0000 F   0  0  0  0  0  0  0  0  0  0  0  0
    4.2868   -2.4750    0.0000 C   0  0  0  0  0  0  0  0  0  0  0  0
    4.2868   -3.3000    0.0000 N   0  0  0  0  0  0  0  0  0  0  0  0
    3.5724   -3.7125    0.0000 C   0  0  0  0  0  0  0  0  0  0  0  0
    3.5724   -4.5375    0.0000 O   0  0  0  0  0  0  0  0  0  0  0  0
    5.0013   -3.7125    0.0000 C   0  0  0  0  0  0  0  0  0  0  0  0
    5.7550   -3.3769    0.0000 C   0  0  0  0  0  0  0  0  0  0  0  0
    6.3070   -3.9900    0.0000 C   0  0  0  0  0  0  0  0  0  0  0  0
    5.8945   -4.7045    0.0000 C   0  0  0  0  0  0  0  0  0  0  0  0
    5.0875   -4.5330    0.0000 O   0  0  0  0  0  0  0  0  0  0  0  0
   -2.1434   -4.5375    0.0000 C   0  0  0  0  0  0  0  0  0  0  0  0
   -1.4289   -4.9500    0.0000 C   0  0  0  0  0  0  0  0  0  0  0  0
  1  2  1  0  0  0  0
  2  3  1  0  0  0  0
  3  4  2  0  0  0  0
  4  5  1  0  0  0  0
  5  6  2  0  0  0  0
  6  7  1  0  0  0  0
  7  8  1  0  0  0  0
  8  9  2  0  0  0  0
  8 10  1  0  0  0  0
 10 11  1  0  0  0  0
 11 12  1  0  0  0  0
 12 13  2  0  0  0  0
 12 14  1  0  0  0  0
 14 15  1  0  0  0  0
 15 16  1  0  0  0  0
 16 17  2  0  0  0  0
 16 18  1  0  0  0  0
 18 19  1  0  0  0  0
 18 20  2  0  0  0  0
 20 21  1  0  0  0  0
 21 22  1  0  0  0  0
 15 22  1  0  0  0  0
 22 23  2  0  0  0  0
 21 24  1  0  0  0  0
 24 25  1  0  0  0  0
 25 26  1  0  0  0  0
 26 27  1  0  0  0  0
 27 28  1  0  0  0  0
 24 28  1  0  0  0  0
  6 29  1  0  0  0  0
  2 29  2  0  0  0  0
 29 30  1  0  0  0  0
M  END
>  <Catalog ID>
Z94560748

>  <Plate_ID>
2026983-X50-01

>  <Well>
H04

>  <V, µL>
50

>  <Conc, mM>
10

>  <Formula>
C20H23FN4O5

>  <MW>
418.4188

>  <Purity>
91.02

>  <PO>
5A-64168

>  <MW_salt>
0

>  <Stereochem.data>
Racemic or presumed racemic or meso

>  <Geometric.isomer>
None

>  <Chemical name>
N-{[(2,3-dimethylphenyl)carbamoyl]methyl}-2-[5-fluoro-2,6-dioxo-3-(oxolan-2-yl)-1,2,3,6-tetrahydropyrimidin-1-yl]acetamide

>  <ClogP>
1,777

>  <logS>
-3,43

>  <HBD>
2

>  <HBA>
5

>  <TPSA>
108,05

>  <RotBonds>
6

$$$$

  Mrv1925 04172511352D          

 24 27  0  0  0  0            999 V2000
    0.6538   -2.1269    0.0000 O   0  0  0  0  0  0  0  0  0  0  0  0
   -0.1712   -2.1269    0.0000 C   0  0  0  0  0  0  0  0  0  0  0  0
   -0.5837   -2.8414    0.0000 C   0  0  0  0  0  0  0  0  0  0  0  0
   -0.1712   -3.5558    0.0000 F   0  0  0  0  0  0  0  0  0  0  0  0
   -1.4087   -2.8414    0.0000 C   0  0  0  0  0  0  0  0  0  0  0  0
   -1.8212   -2.1269    0.0000 N   0  0  0  0  0  0  0  0  0  0  0  0
   -1.4087   -1.4124    0.0000 C   0  0  0  0  0  0  0  0  0  0  0  0
   -1.8212   -0.6979    0.0000 O   0  0  0  0  0  0  0  0  0  0  0  0
   -0.5837   -1.4124    0.0000 N   0  0  0  0  0  0  0  0  0  0  0  0
   -0.1712   -0.6979    0.0000 C   0  0  0  0  0  0  0  0  0  0  0  0
    0.6538   -0.6979    0.0000 C   0  0  0  0  0  0  0  0  0  0  0  0
    1.1387   -0.0305    0.0000 N   0  0  0  0  0  0  0  0  0  0  0  0
    1.9233   -0.2854    0.0000 C   0  0  0  0  0  0  0  0  0  0  0  0
    2.6378    0.1271    0.0000 C   0  0  0  0  0  0  0  0  0  0  0  0
    3.3523   -0.2854    0.0000 C   0  0  0  0  0  0  0  0  0  0  0  0
    3.3523   -1.1104    0.0000 C   0  0  0  0  0  0  0  0  0  0  0  0
    2.6378   -1.5229    0.0000 C   0  0  0  0  0  0  0  0  0  0  0  0
    1.9233   -1.1104    0.0000 C   0  0  0  0  0  0  0  0  0  0  0  0
    1.1387   -1.3654    0.0000 S   0  0  0  0  0  0  0  0  0  0  0  0
   -2.6462   -2.1269    0.0000 C   0  0  0  0  0  0  0  0  0  0  0  0
   -3.1311   -2.7943    0.0000 C   0  0  0  0  0  0  0  0  0  0  0  0
   -3.9157   -2.5394    0.0000 C   0  0  0  0  0  0  0  0  0  0  0  0
   -3.9157   -1.7144    0.0000 C   0  0  0  0  0  0  0  0  0  0  0  0
   -3.1311   -1.4594    0.0000 O   0  0  0  0  0  0  0  0  0  0  0  0
  1  2  2  0  0  0  0
  2  3  1  0  0  0  0
  3  4  1  0  0  0  0
  3  5  2  0  0  0  0
  5  6  1  0  0  0  0
  6  7  1  0  0  0  0
  7  8  2  0  0  0  0
  7  9  1  0  0  0  0
  2  9  1  0  0  0  0
  9 10  1  0  0  0  0
 10 11  1  0  0  0  0
 11 12  2  0  0  0  0
 12 13  1  0  0  0  0
 13 14  1  0  0  0  0
 14 15  2  0  0  0  0
 15 16  1  0  0  0  0
 16 17  2  0  0  0  0
 17 18  1  0  0  0  0
 13 18  2  0  0  0  0
 18 19  1  0  0  0  0
 11 19  1  0  0  0  0
  6 20  1  0  0  0  0
 20 21  1  0  0  0  0
 21 22  1  0  0  0  0
 22 23  1  0  0  0  0
 23 24  1  0  0  0  0
 20 24  1  0  0  0  0
M  END
>  <Catalog ID>
Z94558269

>  <Plate_ID>
2026983-X50-01

>  <Well>
A05

>  <V, µL>
50

>  <Conc, mM>
10

>  <Formula>
C16H14FN3O3S

>  <MW>
347.3641

>  <Purity>
100

>  <PO>
5A-64168

>  <MW_salt>
0

>  <Stereochem.data>
Racemic or presumed racemic or meso

>  <Geometric.isomer>
None

>  <Chemical name>
3-[(1,3-benzothiazol-2-yl)methyl]-5-fluoro-1-(oxolan-2-yl)-1,2,3,4-tetrahydropyrimidine-2,4-dione

>  <ClogP>
2,303

>  <logS>
-2,66

>  <HBD>
0

>  <HBA>
4

>  <TPSA>
62,74

>  <RotBonds>
3

$$$$

  Mrv1925 04172511352D          

 19 21  0  0  0  0            999 V2000
   -3.5724    8.7901    0.0000 C   0  0  0  0  0  0  0  0  0  0  0  0
   -3.5724    7.9651    0.0000 N   0  0  0  0  0  0  0  0  0  0  0  0
   -2.8579    7.5526    0.0000 C   0  0  0  0  0  0  0  0  0  0  0  0
   -2.8579    6.7276    0.0000 C   0  0  0  0  0  0  0  0  0  0  0  0
   -2.1434    6.3151    0.0000 C   0  0  0  0  0  0  0  0  0  0  0  0
   -1.4289    6.7276    0.0000 O   0  0  0  0  0  0  0  0  0  0  0  0
   -2.1434    5.4901    0.0000 N   0  0  0  0  0  0  0  0  0  0  0  0
   -1.4289    5.0776    0.0000 C   0  0  0  0  0  0  0  0  0  0  0  0
   -1.4289    4.2526    0.0000 C   0  0  0  0  0  0  0  0  0  0  0  0
   -1.0164    3.5382    0.0000 C   0  0  0  0  0  0  0  0  0  0  0  0
   -1.8414    3.5382    0.0000 C   0  0  0  0  0  0  0  0  0  0  0  0
   -0.7145    5.4901    0.0000 C   0  0  0  0  0  0  0  0  0  0  0  0
   -0.3020    6.2046    0.0000 C   0  0  0  0  0  0  0  0  0  0  0  0
    0.1105    5.4901    0.0000 C   0  0  0  0  0  0  0  0  0  0  0  0
   -3.5724    6.3151    0.0000 C   0  0  0  0  0  0  0  0  0  0  0  0
   -3.5724    5.4901    0.0000 O   0  0  0  0  0  0  0  0  0  0  0  0
   -4.2868    6.7276    0.0000 N   0  0  0  0  0  0  0  0  0  0  0  0
   -4.2868    7.5526    0.0000 C   0  0  0  0  0  0  0  0  0  0  0  0
   -5.0013    7.9651    0.0000 O   0  0  0  0  0  0  0  0  0  0  0  0
  1  2  1  0  0  0  0
  2  3  1  0  0  0  0
  3  4  2  0  0  0  0
  4  5  1  0  0  0  0
  5  6  2  0  0  0  0
  5  7  1  0  0  0  0
  7  8  1  0  0  0  0
  8  9  1  0  0  0  0
  9 10  1  0  0  0  0
 10 11  1  0  0  0  0
  9 11  1  0  0  0  0
  8 12  1  0  0  0  0
 12 13  1  0  0  0  0
 13 14  1  0  0  0  0
 12 14  1  0  0  0  0
  4 15  1  0  0  0  0
 15 16  2  0  0  0  0
 15 17  1  0  0  0  0
 17 18  1  0  0  0  0
  2 18  1  0  0  0  0
 18 19  2  0  0  0  0
M  END
>  <Catalog ID>
Z381624082

>  <Plate_ID>
2026983-X50-01

>  <Well>
B05

>  <V, µL>
50

>  <Conc, mM>
10

>  <Formula>
C13H17N3O3

>  <MW>
263.2924

>  <Purity>
100

>  <PO>
5A-64168

>  <MW_salt>
0

>  <Stereochem.data>
Achiral

>  <Geometric.isomer>
None

>  <Chemical name>
N-(dicyclopropylmethyl)-1-methyl-2,4-dioxo-1,2,3,4-tetrahydropyrimidine-5-carboxamide

>  <ClogP>
0,421

>  <logS>
-2,282

>  <HBD>
2

>  <HBA>
3

>  <TPSA>
78,51

>  <RotBonds>
4

$$$$

  Mrv1925 04172511352D          

 17 17  0  0  0  0            999 V2000
    0.7145   -3.7125    0.0000 C   0  0  0  0  0  0  0  0  0  0  0  0
    1.4289   -4.1250    0.0000 C   0  0  0  0  0  0  0  0  0  0  0  0
    2.1434   -3.7125    0.0000 C   0  0  0  0  0  0  0  0  0  0  0  0
    2.8579   -4.1250    0.0000 C   0  0  0  0  0  0  0  0  0  0  0  0
    2.8579   -4.9500    0.0000 C   0  0  0  0  0  0  0  0  0  0  0  0
    3.5724   -3.7125    0.0000 N   0  0  0  0  0  0  0  0  0  0  0  0
    4.2868   -4.1250    0.0000 C   0  0  0  0  0  0  0  0  0  0  0  0
    4.2868   -4.9500    0.0000 O   0  0  0  0  0  0  0  0  0  0  0  0
    5.0013   -3.7125    0.0000 C   0  0  0  0  0  0  0  0  0  0  0  0
    5.7158   -4.1250    0.0000 N   0  0  0  0  0  0  0  0  0  0  0  0
    6.4302   -3.7125    0.0000 C   0  0  0  0  0  0  0  0  0  0  0  0
    7.1447   -4.1250    0.0000 C   0  0  0  0  0  0  0  0  0  0  0  0
    7.1447   -4.9500    0.0000 C   0  0  0  0  0  0  0  0  0  0  0  0
    7.8592   -5.3625    0.0000 O   0  0  0  0  0  0  0  0  0  0  0  0
    6.4302   -5.3625    0.0000 N   0  0  0  0  0  0  0  0  0  0  0  0
    5.7158   -4.9500    0.0000 C   0  0  0  0  0  0  0  0  0  0  0  0
    5.0013   -5.3625    0.0000 O   0  0  0  0  0  0  0  0  0  0  0  0
  1  2  1  0  0  0  0
  2  3  1  0  0  0  0
  3  4  1  0  0  0  0
  4  5  1  0  0  0  0
  4  6  1  0  0  0  0
  6  7  1  0  0  0  0
  7  8  2  0  0  0  0
  7  9  1  0  0  0  0
  9 10  1  0  0  0  0
 10 11  1  0  0  0  0
 11 12  2  0  0  0  0
 12 13  1  0  0  0  0
 13 14  2  0  0  0  0
 13 15  1  0  0  0  0
 15 16  1  0  0  0  0
 10 16  1  0  0  0  0
 16 17  2  0  0  0  0
M  END
>  <Catalog ID>
Z221234574

>  <Plate_ID>
2026983-X50-01

>  <Well>
C05

>  <V, µL>
50

>  <Conc, mM>
10

>  <Formula>
C11H17N3O3

>  <MW>
239.271

>  <Purity>
100

>  <PO>
5A-64168

>  <MW_salt>
0

>  <Stereochem.data>
Racemic or presumed racemic or meso

>  <Geometric.isomer>
None

>  <Chemical name>
2-(2,4-dioxo-1,2,3,4-tetrahydropyrimidin-1-yl)-N-(pentan-2-yl)acetamide

>  <ClogP>
0,155

>  <logS>
-2,22

>  <HBD>
2

>  <HBA>
3

>  <TPSA>
78,51

>  <RotBonds>
5

$$$$

  Mrv1925 04172511352D          

 17 18  0  0  1  0            999 V2000
    0.7145    6.7661    0.0000 O   0  0  0  0  0  0  0  0  0  0  0  0
    0.7145    5.9411    0.0000 C   0  0  0  0  0  0  0  0  0  0  0  0
    1.4289    5.5286    0.0000 N   0  0  0  0  0  0  0  0  0  0  0  0
    1.4289    4.7036    0.0000 C   0  0  0  0  0  0  0  0  0  0  0  0
    2.1434    4.2911    0.0000 O   0  0  0  0  0  0  0  0  0  0  0  0
    0.7145    4.2911    0.0000 N   0  0  0  0  0  0  0  0  0  0  0  0
    0.0000    4.7036    0.0000 C   0  0  0  0  0  0  0  0  0  0  0  0
    0.0000    5.5286    0.0000 C   0  0  0  0  0  0  0  0  0  0  0  0
   -0.7145    5.9411    0.0000 F   0  0  0  0  0  0  0  0  0  0  0  0
    0.7145    3.4661    0.0000 C   0  0  1  0  0  0  0  0  0  0  0  0
    1.3819    2.9812    0.0000 C   0  0  0  0  0  0  0  0  0  0  0  0
    1.1270    2.1965    0.0000 C   0  0  2  0  0  0  0  0  0  0  0  0
    1.6119    1.5291    0.0000 O   0  0  0  0  0  0  0  0  0  0  0  0
    0.3020    2.1965    0.0000 C   0  0  1  0  0  0  0  0  0  0  0  0
   -0.1830    1.5291    0.0000 C   0  0  0  0  0  0  0  0  0  0  0  0
    0.1526    0.7754    0.0000 O   0  0  0  0  0  0  0  0  0  0  0  0
    0.0470    2.9812    0.0000 O   0  0  0  0  0  0  0  0  0  0  0  0
  1  2  2  0  0  0  0
  2  3  1  0  0  0  0
  3  4  1  0  0  0  0
  4  5  2  0  0  0  0
  4  6  1  0  0  0  0
  6  7  1  0  0  0  0
  7  8  2  0  0  0  0
  2  8  1  0  0  0  0
  8  9  1  0  0  0  0
 10  6  1  1  0  0  0
 10 11  1  0  0  0  0
 12 11  1  0  0  0  0
 12 13  1  6  0  0  0
 12 14  1  0  0  0  0
 14 15  1  1  0  0  0
 15 16  1  0  0  0  0
 14 17  1  0  0  0  0
 10 17  1  0  0  0  0
M  END
>  <Catalog ID>
Z756475348

>  <Plate_ID>
2026983-X50-01

>  <Well>
D05

>  <V, µL>
50

>  <Conc, mM>
10

>  <Formula>
C9H11FN2O5

>  <MW>
246.1924

>  <Purity>
100

>  <PO>
5A-64168

>  <MW_salt>
0

>  <Stereochem.data>
Single known enantiomer

>  <Geometric.isomer>
None

>  <Chemical name>
5-fluoro-1-[(2R,4S,5R)-4-hydroxy-5-(hydroxymethyl)oxolan-2-yl]-1,2,3,4-tetrahydropyrimidine-2,4-dione

>  <ClogP>
-1,405

>  <logS>
-1,01

>  <HBD>
3

>  <HBA>
5

>  <TPSA>
99,1

>  <RotBonds>
2

$$$$

  Mrv1925 04172511352D          

 22 23  0  0  0  0            999 V2000
    1.4289    0.8250    0.0000 C   0  0  0  0  0  0  0  0  0  0  0  0
    1.4289    0.0000    0.0000 C   0  0  0  0  0  0  0  0  0  0  0  0
    2.1434   -0.4125    0.0000 N   0  0  0  0  0  0  0  0  0  0  0  0
    2.8579    0.0000    0.0000 C   0  0  0  0  0  0  0  0  0  0  0  0
    3.5724   -0.4125    0.0000 C   0  0  0  0  0  0  0  0  0  0  0  0
    2.1434   -1.2375    0.0000 C   0  0  0  0  0  0  0  0  0  0  0  0
    2.8579   -1.6500    0.0000 C   0  0  0  0  0  0  0  0  0  0  0  0
    2.8579   -2.4750    0.0000 C   0  0  0  0  0  0  0  0  0  0  0  0
    2.1434   -2.8875    0.0000 C   0  0  0  0  0  0  0  0  0  0  0  0
    1.4289   -2.4750    0.0000 C   0  0  0  0  0  0  0  0  0  0  0  0
    1.4289   -1.6500    0.0000 N   0  0  0  0  0  0  0  0  0  0  0  0
    2.1434   -3.7125    0.0000 C   0  0  0  0  0  0  0  0  0  0  0  0
    1.4289   -4.1250    0.0000 N   0  0  0  0  0  0  0  0  0  0  0  0
    1.4289   -4.9500    0.0000 C   0  0  0  0  0  0  0  0  0  0  0  0
    0.7145   -5.3625    0.0000 C   0  0  0  0  0  0  0  0  0  0  0  0
    0.7145   -6.1875    0.0000 C   0  0  0  0  0  0  0  0  0  0  0  0
    0.7145   -7.0125    0.0000 N   0  0  0  0  0  0  0  0  0  0  0  0
   -0.0000   -4.9500    0.0000 C   0  0  0  0  0  0  0  0  0  0  0  0
   -0.7145   -5.3625    0.0000 O   0  0  0  0  0  0  0  0  0  0  0  0
    0.0000   -4.1250    0.0000 N   0  0  0  0  0  0  0  0  0  0  0  0
    0.7145   -3.7125    0.0000 C   0  0  0  0  0  0  0  0  0  0  0  0
    0.7145   -2.8875    0.0000 O   0  0  0  0  0  0  0  0  0  0  0  0
  1  2  1  0  0  0  0
  2  3  1  0  0  0  0
  3  4  1  0  0  0  0
  4  5  1  0  0  0  0
  3  6  1  0  0  0  0
  6  7  1  0  0  0  0
  7  8  2  0  0  0  0
  8  9  1  0  0  0  0
  9 10  2  0  0  0  0
 10 11  1  0  0  0  0
  6 11  2  0  0  0  0
  9 12  1  0  0  0  0
 12 13  1  0  0  0  0
 13 14  1  0  0  0  0
 14 15  2  0  0  0  0
 15 16  1  0  0  0  0
 16 17  3  0  0  0  0
 15 18  1  0  0  0  0
 18 19  2  0  0  0  0
 18 20  1  0  0  0  0
 20 21  1  0  0  0  0
 13 21  1  0  0  0  0
 21 22  2  0  0  0  0
M  END
>  <Catalog ID>
Z666560644

>  <Plate_ID>
2026983-X50-01

>  <Well>
E05

>  <V, µL>
50

>  <Conc, mM>
10

>  <Formula>
C15H17N5O2

>  <MW>
299.3278

>  <Purity>
100

>  <PO>
5A-64168

>  <MW_salt>
0

>  <Stereochem.data>
Achiral

>  <Geometric.isomer>
None

>  <Chemical name>
1-{[6-(diethylamino)pyridin-3-yl]methyl}-2,4-dioxo-1,2,3,4-tetrahydropyrimidine-5-carbonitrile

>  <ClogP>
1,056

>  <logS>
-2,7

>  <HBD>
1

>  <HBA>
5

>  <TPSA>
89,33

>  <RotBonds>
5

$$$$

  Mrv1925 04172511352D          

 21 22  0  0  0  0            999 V2000
   -2.1434   -1.2375    0.0000 C   0  0  0  0  0  0  0  0  0  0  0  0
   -1.4289   -1.6500    0.0000 C   0  0  0  0  0  0  0  0  0  0  0  0
   -0.7145   -1.2375    0.0000 C   0  0  0  0  0  0  0  0  0  0  0  0
    0.0000   -1.6500    0.0000 C   0  0  0  0  0  0  0  0  0  0  0  0
    0.0000   -2.4750    0.0000 C   0  0  0  0  0  0  0  0  0  0  0  0
   -0.7145   -2.8875    0.0000 N   0  0  0  0  0  0  0  0  0  0  0  0
   -1.4289   -2.4750    0.0000 C   0  0  0  0  0  0  0  0  0  0  0  0
    0.7145   -2.8875    0.0000 N   0  0  0  0  0  0  0  0  0  0  0  0
    1.4289   -2.4750    0.0000 C   0  0  0  0  0  0  0  0  0  0  0  0
    2.1434   -2.8875    0.0000 C   0  0  0  0  0  0  0  0  0  0  0  0
    2.8579   -2.4750    0.0000 C   0  0  0  0  0  0  0  0  0  0  0  0
    3.5724   -2.8875    0.0000 N   0  0  0  0  0  0  0  0  0  0  0  0
    4.2868   -2.4750    0.0000 C   0  0  0  0  0  0  0  0  0  0  0  0
    5.0013   -2.8875    0.0000 C   0  0  0  0  0  0  0  0  0  0  0  0
    5.7158   -2.4750    0.0000 C   0  0  0  0  0  0  0  0  0  0  0  0
    6.4302   -2.0625    0.0000 N   0  0  0  0  0  0  0  0  0  0  0  0
    5.0013   -3.7125    0.0000 C   0  0  0  0  0  0  0  0  0  0  0  0
    5.7158   -4.1250    0.0000 O   0  0  0  0  0  0  0  0  0  0  0  0
    4.2868   -4.1250    0.0000 N   0  0  0  0  0  0  0  0  0  0  0  0
    3.5724   -3.7125    0.0000 C   0  0  0  0  0  0  0  0  0  0  0  0
    2.8579   -4.1250    0.0000 O   0  0  0  0  0  0  0  0  0  0  0  0
  1  2  1  0  0  0  0
  2  3  1  0  0  0  0
  3  4  2  0  0  0  0
  4  5  1  0  0  0  0
  5  6  2  0  0  0  0
  6  7  1  0  0  0  0
  2  7  2  0  0  0  0
  5  8  1  0  0  0  0
  8  9  1  0  0  0  0
  9 10  1  0  0  0  0
 10 11  1  0  0  0  0
 11 12  1  0  0  0  0
 12 13  1  0  0  0  0
 13 14  2  0  0  0  0
 14 15  1  0  0  0  0
 15 16  3  0  0  0  0
 14 17  1  0  0  0  0
 17 18  2  0  0  0  0
 17 19  1  0  0  0  0
 19 20  1  0  0  0  0
 12 20  1  0  0  0  0
 20 21  2  0  0  0  0
M  END
>  <Catalog ID>
Z666563062

>  <Plate_ID>
2026983-X50-01

>  <Well>
F05

>  <V, µL>
50

>  <Conc, mM>
10

>  <Formula>
C14H15N5O2

>  <MW>
285.3012

>  <Purity>
100

>  <PO>
5A-64168

>  <MW_salt>
0

>  <Stereochem.data>
Achiral

>  <Geometric.isomer>
None

>  <Chemical name>
1-{3-[(5-methylpyridin-2-yl)amino]propyl}-2,4-dioxo-1,2,3,4-tetrahydropyrimidine-5-carbonitrile

>  <ClogP>
1,036

>  <logS>
-2,51

>  <HBD>
2

>  <HBA>
5

>  <TPSA>
98,12

>  <RotBonds>
5

$$$$

  Mrv1925 04172511352D          

 17 18  0  0  0  0            999 V2000
   -2.7512   -1.7116    0.0000 O   0  0  0  0  0  0  0  0  0  0  0  0
   -2.0367   -1.2991    0.0000 C   0  0  0  0  0  0  0  0  0  0  0  0
   -2.0367   -0.4741    0.0000 C   0  0  0  0  0  0  0  0  0  0  0  0
   -2.7512   -0.0616    0.0000 N   0  0  0  0  0  0  0  0  0  0  0  0
   -3.4656   -0.4741    0.0000 C   0  0  0  0  0  0  0  0  0  0  0  0
   -4.1801   -0.0616    0.0000 C   0  0  0  0  0  0  0  0  0  0  0  0
   -4.1801    0.7634    0.0000 C   0  0  0  0  0  0  0  0  0  0  0  0
   -4.8946    1.1759    0.0000 O   0  0  0  0  0  0  0  0  0  0  0  0
   -3.4656    1.1759    0.0000 N   0  0  0  0  0  0  0  0  0  0  0  0
   -2.7512    0.7634    0.0000 C   0  0  0  0  0  0  0  0  0  0  0  0
   -2.0367    1.1759    0.0000 O   0  0  0  0  0  0  0  0  0  0  0  0
   -1.3222   -1.7116    0.0000 N   0  0  0  0  0  0  0  0  0  0  0  0
   -1.3222   -2.5366    0.0000 C   0  0  0  0  0  0  0  0  0  0  0  0
   -0.6548   -3.0215    0.0000 C   0  0  0  0  0  0  0  0  0  0  0  0
   -0.9097   -3.8062    0.0000 C   0  0  0  0  0  0  0  0  0  0  0  0
   -1.7347   -3.8062    0.0000 C   0  0  0  0  0  0  0  0  0  0  0  0
   -1.9897   -3.0215    0.0000 C   0  0  0  0  0  0  0  0  0  0  0  0
  1  2  2  0  0  0  0
  2  3  1  0  0  0  0
  3  4  1  0  0  0  0
  4  5  1  0  0  0  0
  5  6  2  0  0  0  0
  6  7  1  0  0  0  0
  7  8  2  0  0  0  0
  7  9  1  0  0  0  0
  9 10  1  0  0  0  0
  4 10  1  0  0  0  0
 10 11  2  0  0  0  0
  2 12  1  0  0  0  0
 12 13  1  0  0  0  0
 13 14  1  0  0  0  0
 14 15  1  0  0  0  0
 15 16  1  0  0  0  0
 16 17  1  0  0  0  0
 13 17  1  0  0  0  0
M  END
>  <Catalog ID>
Z144591824

>  <Plate_ID>
2026983-X50-01

>  <Well>
G05

>  <V, µL>
50

>  <Conc, mM>
10

>  <Formula>
C11H15N3O3

>  <MW>
237.2551

>  <Purity>
100

>  <PO>
5A-64168

>  <MW_salt>
0

>  <Stereochem.data>
Achiral

>  <Geometric.isomer>
None

>  <Chemical name>
N-cyclopentyl-2-(2,4-dioxo-1,2,3,4-tetrahydropyrimidin-1-yl)acetamide

>  <ClogP>
-0,269

>  <logS>
-1,986

>  <HBD>
2

>  <HBA>
3

>  <TPSA>
78,51

>  <RotBonds>
3

$$$$

  Mrv1925 04172511352D          

 18 18  0  0  0  0            999 V2000
   -2.1434    5.3625    0.0000 C   0  0  0  0  0  0  0  0  0  0  0  0
   -1.4289    4.9500    0.0000 C   0  0  0  0  0  0  0  0  0  0  0  0
   -1.4289    4.1250    0.0000 C   0  0  0  0  0  0  0  0  0  0  0  0
   -0.7145    3.7125    0.0000 C   0  0  0  0  0  0  0  0  0  0  0  0
   -1.1270    2.9980    0.0000 C   0  0  0  0  0  0  0  0  0  0  0  0
   -0.3020    4.4270    0.0000 C   0  0  0  0  0  0  0  0  0  0  0  0
    0.0000    3.3000    0.0000 N   0  0  0  0  0  0  0  0  0  0  0  0
    0.0000    2.4750    0.0000 C   0  0  0  0  0  0  0  0  0  0  0  0
   -0.7145    2.0625    0.0000 O   0  0  0  0  0  0  0  0  0  0  0  0
    0.7145    2.0625    0.0000 C   0  0  0  0  0  0  0  0  0  0  0  0
    0.7145    1.2375    0.0000 N   0  0  0  0  0  0  0  0  0  0  0  0
    1.4289    0.8250    0.0000 C   0  0  0  0  0  0  0  0  0  0  0  0
    1.4289   -0.0000    0.0000 C   0  0  0  0  0  0  0  0  0  0  0  0
    0.7145   -0.4125    0.0000 C   0  0  0  0  0  0  0  0  0  0  0  0
    0.7145   -1.2375    0.0000 O   0  0  0  0  0  0  0  0  0  0  0  0
    0.0000    0.0000    0.0000 N   0  0  0  0  0  0  0  0  0  0  0  0
    0.0000    0.8250    0.0000 C   0  0  0  0  0  0  0  0  0  0  0  0
   -0.7145    1.2375    0.0000 O   0  0  0  0  0  0  0  0  0  0  0  0
  1  2  1  0  0  0  0
  2  3  1  0  0  0  0
  3  4  1  0  0  0  0
  4  5  1  0  0  0  0
  4  6  1  0  0  0  0
  4  7  1  0  0  0  0
  7  8  1  0  0  0  0
  8  9  2  0  0  0  0
  8 10  1  0  0  0  0
 10 11  1  0  0  0  0
 11 12  1  0  0  0  0
 12 13  2  0  0  0  0
 13 14  1  0  0  0  0
 14 15  2  0  0  0  0
 14 16  1  0  0  0  0
 16 17  1  0  0  0  0
 11 17  1  0  0  0  0
 17 18  2  0  0  0  0
M  END
>  <Catalog ID>
Z961006098

>  <Plate_ID>
2026983-X50-01

>  <Well>
H05

>  <V, µL>
50

>  <Conc, mM>
10

>  <Formula>
C12H19N3O3

>  <MW>
253.2976

>  <Purity>
96.04

>  <PO>
5A-64168

>  <MW_salt>
0

>  <Stereochem.data>
Achiral

>  <Geometric.isomer>
None

>  <Chemical name>
2-(2,4-dioxo-1,2,3,4-tetrahydropyrimidin-1-yl)-N-(2-methylpentan-2-yl)acetamide

>  <ClogP>
0,554

>  <logS>
-2,47

>  <HBD>
2

>  <HBA>
3

>  <TPSA>
78,51

>  <RotBonds>
5

$$$$

  Mrv1925 04172511352D          

 32 34  0  0  0  0            999 V2000
   -5.6091   -0.1848    0.0000 O   0  0  0  0  0  0  0  0  0  0  0  0
   -5.6091    0.6402    0.0000 C   0  0  0  0  0  0  0  0  0  0  0  0
   -4.8946    1.0527    0.0000 C   0  0  0  0  0  0  0  0  0  0  0  0
   -4.1801    0.6402    0.0000 N   0  0  0  0  0  0  0  0  0  0  0  0
   -3.4656    1.0527    0.0000 C   0  0  0  0  0  0  0  0  0  0  0  0
   -3.4656    1.8777    0.0000 O   0  0  0  0  0  0  0  0  0  0  0  0
   -2.7512    0.6402    0.0000 C   0  0  0  0  0  0  0  0  0  0  0  0
   -2.0367    1.0527    0.0000 F   0  0  0  0  0  0  0  0  0  0  0  0
   -2.7512   -0.1848    0.0000 C   0  0  0  0  0  0  0  0  0  0  0  0
   -3.4656   -0.5973    0.0000 N   0  0  0  0  0  0  0  0  0  0  0  0
   -4.1801   -0.1848    0.0000 C   0  0  0  0  0  0  0  0  0  0  0  0
   -4.8946   -0.5973    0.0000 O   0  0  0  0  0  0  0  0  0  0  0  0
   -3.4656   -1.4223    0.0000 C   0  0  0  0  0  0  0  0  0  0  0  0
   -2.7982   -1.9072    0.0000 C   0  0  0  0  0  0  0  0  0  0  0  0
   -3.0531   -2.6919    0.0000 C   0  0  0  0  0  0  0  0  0  0  0  0
   -3.8781   -2.6919    0.0000 C   0  0  0  0  0  0  0  0  0  0  0  0
   -4.1331   -1.9072    0.0000 O   0  0  0  0  0  0  0  0  0  0  0  0
   -6.3235    1.0527    0.0000 N   0  0  0  0  0  0  0  0  0  0  0  0
   -7.0380    0.6402    0.0000 C   0  0  0  0  0  0  0  0  0  0  0  0
   -7.0380   -0.1848    0.0000 C   0  0  0  0  0  0  0  0  0  0  0  0
   -7.7525   -0.5973    0.0000 C   0  0  0  0  0  0  0  0  0  0  0  0
   -8.4669   -0.1848    0.0000 C   0  0  0  0  0  0  0  0  0  0  0  0
   -8.4669    0.6402    0.0000 C   0  0  0  0  0  0  0  0  0  0  0  0
   -7.7525    1.0527    0.0000 C   0  0  0  0  0  0  0  0  0  0  0  0
   -9.1814    1.0527    0.0000 C   0  0  0  0  0  0  0  0  0  0  0  0
   -9.8959    1.4652    0.0000 F   0  0  0  0  0  0  0  0  0  0  0  0
   -8.7689    1.7672    0.0000 F   0  0  0  0  0  0  0  0  0  0  0  0
   -9.5939    0.3382    0.0000 F   0  0  0  0  0  0  0  0  0  0  0  0
   -7.7525   -1.4223    0.0000 C   0  0  0  0  0  0  0  0  0  0  0  0
   -7.7525   -2.2473    0.0000 F   0  0  0  0  0  0  0  0  0  0  0  0
   -8.5775   -1.4223    0.0000 F   0  0  0  0  0  0  0  0  0  0  0  0
   -6.9275   -1.4223    0.0000 F   0  0  0  0  0  0  0  0  0  0  0  0
  1  2  2  0  0  0  0
  2  3  1  0  0  0  0
  3  4  1  0  0  0  0
  4  5  1  0  0  0  0
  5  6  2  0  0  0  0
  5  7  1  0  0  0  0
  7  8  1  0  0  0  0
  7  9  2  0  0  0  0
  9 10  1  0  0  0  0
 10 11  1  0  0  0  0
  4 11  1  0  0  0  0
 11 12  2  0  0  0  0
 10 13  1  0  0  0  0
 13 14  1  0  0  0  0
 14 15  1  0  0  0  0
 15 16  1  0  0  0  0
 16 17  1  0  0  0  0
 13 17  1  0  0  0  0
  2 18  1  0  0  0  0
 18 19  1  0  0  0  0
 19 20  2  0  0  0  0
 20 21  1  0  0  0  0
 21 22  2  0  0  0  0
 22 23  1  0  0  0  0
 23 24  2  0  0  0  0
 19 24  1  0  0  0  0
 23 25  1  0  0  0  0
 25 26  1  0  0  0  0
 25 27  1  0  0  0  0
 25 28  1  0  0  0  0
 21 29  1  0  0  0  0
 29 30  1  0  0  0  0
 29 31  1  0  0  0  0
 29 32  1  0  0  0  0
M  END
>  <Catalog ID>
Z94556813

>  <Plate_ID>
2026983-X50-01

>  <Well>
A06

>  <V, µL>
50

>  <Conc, mM>
10

>  <Formula>
C18H14F7N3O4

>  <MW>
469.3103

>  <Purity>
100

>  <PO>
5A-64168

>  <MW_salt>
0

>  <Stereochem.data>
Racemic or presumed racemic or meso

>  <Geometric.isomer>
None

>  <Chemical name>
N-[3,5-bis(trifluoromethyl)phenyl]-2-[5-fluoro-2,6-dioxo-3-(oxolan-2-yl)-1,2,3,6-tetrahydropyrimidin-1-yl]acetamide

>  <ClogP>
4,42

>  <logS>
-4,35

>  <HBD>
1

>  <HBA>
4

>  <TPSA>
78,95

>  <RotBonds>
6

$$$$

  Mrv1925 04172511352D          

 24 26  0  0  0  0            999 V2000
   -2.7512   -2.5366    0.0000 O   0  0  0  0  0  0  0  0  0  0  0  0
   -2.7512   -1.7116    0.0000 C   0  0  0  0  0  0  0  0  0  0  0  0
   -2.0367   -1.2991    0.0000 C   0  0  0  0  0  0  0  0  0  0  0  0
   -1.3222   -1.7116    0.0000 N   0  0  0  0  0  0  0  0  0  0  0  0
   -0.6078   -1.2991    0.0000 C   0  0  0  0  0  0  0  0  0  0  0  0
   -0.6078   -0.4741    0.0000 O   0  0  0  0  0  0  0  0  0  0  0  0
    0.1067   -1.7116    0.0000 C   0  0  0  0  0  0  0  0  0  0  0  0
    0.8212   -1.2991    0.0000 F   0  0  0  0  0  0  0  0  0  0  0  0
    0.1067   -2.5366    0.0000 C   0  0  0  0  0  0  0  0  0  0  0  0
   -0.6078   -2.9491    0.0000 N   0  0  0  0  0  0  0  0  0  0  0  0
   -1.3222   -2.5366    0.0000 C   0  0  0  0  0  0  0  0  0  0  0  0
   -2.0367   -2.9491    0.0000 O   0  0  0  0  0  0  0  0  0  0  0  0
   -0.6078   -3.7741    0.0000 C   0  0  0  0  0  0  0  0  0  0  0  0
    0.0597   -4.2590    0.0000 C   0  0  0  0  0  0  0  0  0  0  0  0
   -0.1953   -5.0437    0.0000 C   0  0  0  0  0  0  0  0  0  0  0  0
   -1.0203   -5.0437    0.0000 C   0  0  0  0  0  0  0  0  0  0  0  0
   -1.2752   -4.2590    0.0000 O   0  0  0  0  0  0  0  0  0  0  0  0
   -3.4656   -1.2991    0.0000 C   0  0  0  0  0  0  0  0  0  0  0  0
   -4.1801   -1.7116    0.0000 C   0  0  0  0  0  0  0  0  0  0  0  0
   -4.8946   -1.2991    0.0000 C   0  0  0  0  0  0  0  0  0  0  0  0
   -4.8946   -0.4741    0.0000 C   0  0  0  0  0  0  0  0  0  0  0  0
   -5.6091   -0.0616    0.0000 Br  0  0  0  0  0  0  0  0  0  0  0  0
   -4.1801   -0.0616    0.0000 C   0  0  0  0  0  0  0  0  0  0  0  0
   -3.4656   -0.4741    0.0000 C   0  0  0  0  0  0  0  0  0  0  0  0
  1  2  2  0  0  0  0
  2  3  1  0  0  0  0
  3  4  1  0  0  0  0
  4  5  1  0  0  0  0
  5  6  2  0  0  0  0
  5  7  1  0  0  0  0
  7  8  1  0  0  0  0
  7  9  2  0  0  0  0
  9 10  1  0  0  0  0
 10 11  1  0  0  0  0
  4 11  1  0  0  0  0
 11 12  2  0  0  0  0
 10 13  1  0  0  0  0
 13 14  1  0  0  0  0
 14 15  1  0  0  0  0
 15 16  1  0  0  0  0
 16 17  1  0  0  0  0
 13 17  1  0  0  0  0
  2 18  1  0  0  0  0
 18 19  1  0  0  0  0
 19 20  2  0  0  0  0
 20 21  1  0  0  0  0
 21 22  1  0  0  0  0
 21 23  2  0  0  0  0
 23 24  1  0  0  0  0
 18 24  2  0  0  0  0
M  END
>  <Catalog ID>
Z94557424

>  <Plate_ID>
2026983-X50-01

>  <Well>
B06

>  <V, µL>
50

>  <Conc, mM>
10

>  <Formula>
C16H14BrFN2O4

>  <MW>
397.1958

>  <Purity>
100

>  <PO>
5A-64168

>  <MW_salt>
0

>  <Stereochem.data>
Racemic or presumed racemic or meso

>  <Geometric.isomer>
None

>  <Chemical name>
3-[2-(4-bromophenyl)-2-oxoethyl]-5-fluoro-1-(oxolan-2-yl)-1,2,3,4-tetrahydropyrimidine-2,4-dione

>  <ClogP>
3,27

>  <logS>
-3,71

>  <HBD>
0

>  <HBA>
4

>  <TPSA>
66,92

>  <RotBonds>
4

$$$$

  Mrv1925 04172511352D          

 29 31  0  0  0  0            999 V2000
    1.4289   -0.0000    0.0000 C   0  0  0  0  0  0  0  0  0  0  0  0
    0.7145   -0.4125    0.0000 O   0  0  0  0  0  0  0  0  0  0  0  0
    0.7145   -1.2375    0.0000 C   0  0  0  0  0  0  0  0  0  0  0  0
    0.0000   -1.6500    0.0000 C   0  0  0  0  0  0  0  0  0  0  0  0
   -0.7145   -1.2375    0.0000 C   0  0  0  0  0  0  0  0  0  0  0  0
    0.0000   -2.4750    0.0000 N   0  0  0  0  0  0  0  0  0  0  0  0
    0.6674   -2.9599    0.0000 C   0  0  0  0  0  0  0  0  0  0  0  0
    1.4521   -2.7050    0.0000 C   0  0  0  0  0  0  0  0  0  0  0  0
    0.4125   -3.7445    0.0000 C   0  0  0  0  0  0  0  0  0  0  0  0
   -0.4125   -3.7445    0.0000 C   0  0  0  0  0  0  0  0  0  0  0  0
   -0.8974   -4.4120    0.0000 C   0  0  0  0  0  0  0  0  0  0  0  0
   -0.5619   -5.1657    0.0000 O   0  0  0  0  0  0  0  0  0  0  0  0
   -1.7179   -4.3257    0.0000 C   0  0  0  0  0  0  0  0  0  0  0  0
   -2.2028   -4.9932    0.0000 N   0  0  0  0  0  0  0  0  0  0  0  0
   -1.8673   -5.7469    0.0000 C   0  0  0  0  0  0  0  0  0  0  0  0
   -1.0468   -5.8331    0.0000 O   0  0  0  0  0  0  0  0  0  0  0  0
   -2.3522   -6.4143    0.0000 C   0  0  0  0  0  0  0  0  0  0  0  0
   -2.0166   -7.1680    0.0000 F   0  0  0  0  0  0  0  0  0  0  0  0
   -3.1727   -6.3281    0.0000 C   0  0  0  0  0  0  0  0  0  0  0  0
   -3.5082   -5.5744    0.0000 N   0  0  0  0  0  0  0  0  0  0  0  0
   -3.0233   -4.9070    0.0000 C   0  0  0  0  0  0  0  0  0  0  0  0
   -3.3589   -4.1533    0.0000 O   0  0  0  0  0  0  0  0  0  0  0  0
   -4.3287   -5.4882    0.0000 C   0  0  0  0  0  0  0  0  0  0  0  0
   -4.8807   -6.1012    0.0000 C   0  0  0  0  0  0  0  0  0  0  0  0
   -5.6344   -5.7657    0.0000 C   0  0  0  0  0  0  0  0  0  0  0  0
   -5.5482   -4.9452    0.0000 C   0  0  0  0  0  0  0  0  0  0  0  0
   -4.7412   -4.7737    0.0000 O   0  0  0  0  0  0  0  0  0  0  0  0
   -0.6674   -2.9599    0.0000 C   0  0  0  0  0  0  0  0  0  0  0  0
   -1.4521   -2.7050    0.0000 C   0  0  0  0  0  0  0  0  0  0  0  0
  1  2  1  0  0  0  0
  2  3  1  0  0  0  0
  3  4  1  0  0  0  0
  4  5  1  0  0  0  0
  4  6  1  0  0  0  0
  6  7  1  0  0  0  0
  7  8  1  0  0  0  0
  7  9  2  0  0  0  0
  9 10  1  0  0  0  0
 10 11  1  0  0  0  0
 11 12  2  0  0  0  0
 11 13  1  0  0  0  0
 13 14  1  0  0  0  0
 14 15  1  0  0  0  0
 15 16  2  0  0  0  0
 15 17  1  0  0  0  0
 17 18  1  0  0  0  0
 17 19  2  0  0  0  0
 19 20  1  0  0  0  0
 20 21  1  0  0  0  0
 14 21  1  0  0  0  0
 21 22  2  0  0  0  0
 20 23  1  0  0  0  0
 23 24  1  0  0  0  0
 24 25  1  0  0  0  0
 25 26  1  0  0  0  0
 26 27  1  0  0  0  0
 23 27  1  0  0  0  0
 10 28  2  0  0  0  0
  6 28  1  0  0  0  0
 28 29  1  0  0  0  0
M  END
>  <Catalog ID>
Z94560942

>  <Plate_ID>
2026983-X50-01

>  <Well>
C06

>  <V, µL>
50

>  <Conc, mM>
10

>  <Formula>
C20H26FN3O5

>  <MW>
407.4359

>  <Purity>
97.18

>  <PO>
5A-64168

>  <MW_salt>
0

>  <Stereochem.data>
Diastereomeric mixture

>  <Geometric.isomer>
None

>  <Chemical name>
5-fluoro-3-{2-[1-(1-methoxypropan-2-yl)-2,5-dimethyl-1H-pyrrol-3-yl]-2-oxoethyl}-1-(oxolan-2-yl)-1,2,3,4-tetrahydropyrimidine-2,4-dione

>  <ClogP>
2,82

>  <logS>
-1,6

>  <HBD>
0

>  <HBA>
5

>  <TPSA>
81,08

>  <RotBonds>
7

$$$$

  Mrv1925 04172511352D          

 18 18  0  0  0  0            999 V2000
    0.7145    2.0625    0.0000 C   0  0  0  0  0  0  0  0  0  0  0  0
    0.7145    1.2375    0.0000 N   0  0  0  0  0  0  0  0  0  0  0  0
    1.4289    0.8250    0.0000 C   0  0  0  0  0  0  0  0  0  0  0  0
    2.1434    1.2375    0.0000 O   0  0  0  0  0  0  0  0  0  0  0  0
    1.4289   -0.0000    0.0000 C   0  0  0  0  0  0  0  0  0  0  0  0
    0.7145   -0.4125    0.0000 C   0  0  0  0  0  0  0  0  0  0  0  0
    0.0000    0.0000    0.0000 N   0  0  0  0  0  0  0  0  0  0  0  0
   -0.7145   -0.4125    0.0000 C   0  0  0  0  0  0  0  0  0  0  0  0
   -1.4289    0.0000    0.0000 C   0  0  0  0  0  0  0  0  0  0  0  0
   -1.4289    0.8250    0.0000 O   0  0  0  0  0  0  0  0  0  0  0  0
   -2.1434   -0.4125    0.0000 N   0  0  0  0  0  0  0  0  0  0  0  0
   -2.8579    0.0000    0.0000 C   0  0  0  0  0  0  0  0  0  0  0  0
   -3.5724   -0.4125    0.0000 C   0  0  0  0  0  0  0  0  0  0  0  0
   -4.2868   -0.8250    0.0000 F   0  0  0  0  0  0  0  0  0  0  0  0
   -3.9849    0.3020    0.0000 F   0  0  0  0  0  0  0  0  0  0  0  0
   -3.1599   -1.1270    0.0000 F   0  0  0  0  0  0  0  0  0  0  0  0
    0.0000    0.8250    0.0000 C   0  0  0  0  0  0  0  0  0  0  0  0
   -0.7145    1.2375    0.0000 O   0  0  0  0  0  0  0  0  0  0  0  0
  1  2  1  0  0  0  0
  2  3  1  0  0  0  0
  3  4  2  0  0  0  0
  3  5  1  0  0  0  0
  5  6  2  0  0  0  0
  6  7  1  0  0  0  0
  7  8  1  0  0  0  0
  8  9  1  0  0  0  0
  9 10  2  0  0  0  0
  9 11  1  0  0  0  0
 11 12  1  0  0  0  0
 12 13  1  0  0  0  0
 13 14  1  0  0  0  0
 13 15  1  0  0  0  0
 13 16  1  0  0  0  0
  7 17  1  0  0  0  0
  2 17  1  0  0  0  0
 17 18  2  0  0  0  0
M  END
>  <Catalog ID>
Z383222594

>  <Plate_ID>
2026983-X50-01

>  <Well>
D06

>  <V, µL>
50

>  <Conc, mM>
10

>  <Formula>
C9H10F3N3O3

>  <MW>
265.1892

>  <Purity>
100

>  <PO>
5A-64168

>  <MW_salt>
0

>  <Stereochem.data>
Achiral

>  <Geometric.isomer>
None

>  <Chemical name>
2-(3-methyl-2,4-dioxo-1,2,3,4-tetrahydropyrimidin-1-yl)-N-(2,2,2-trifluoroethyl)acetamide

>  <ClogP>
-0,222

>  <logS>
-1,361

>  <HBD>
1

>  <HBA>
3

>  <TPSA>
69,72

>  <RotBonds>
4

$$$$

  Mrv1925 04172511352D          

 29 31  0  0  0  0            999 V2000
   -2.1619   -2.2233    0.0000 C   0  0  0  0  0  0  0  0  0  0  0  0
   -1.4082   -2.5588    0.0000 C   0  0  0  0  0  0  0  0  0  0  0  0
   -0.7408   -2.0739    0.0000 O   0  0  0  0  0  0  0  0  0  0  0  0
   -1.3220   -3.3793    0.0000 O   0  0  0  0  0  0  0  0  0  0  0  0
   -0.5683   -3.7149    0.0000 C   0  0  0  0  0  0  0  0  0  0  0  0
    0.0992   -3.2299    0.0000 C   0  0  0  0  0  0  0  0  0  0  0  0
    0.0992   -2.4049    0.0000 O   0  0  0  0  0  0  0  0  0  0  0  0
    0.8838   -2.1500    0.0000 C   0  0  0  0  0  0  0  0  0  0  0  0
    1.3687   -2.8174    0.0000 C   0  0  0  0  0  0  0  0  0  0  0  0
    2.1937   -2.8174    0.0000 O   0  0  0  0  0  0  0  0  0  0  0  0
    2.6062   -3.5319    0.0000 C   0  0  0  0  0  0  0  0  0  0  0  0
    3.4312   -3.5319    0.0000 C   0  0  0  0  0  0  0  0  0  0  0  0
    2.1937   -4.2464    0.0000 O   0  0  0  0  0  0  0  0  0  0  0  0
    0.8838   -3.4849    0.0000 C   0  0  0  0  0  0  0  0  0  0  0  0
    1.1387   -4.2695    0.0000 O   0  0  0  0  0  0  0  0  0  0  0  0
    0.5867   -4.8826    0.0000 C   0  0  0  0  0  0  0  0  0  0  0  0
   -0.2203   -4.7111    0.0000 C   0  0  0  0  0  0  0  0  0  0  0  0
    0.8416   -5.6672    0.0000 O   0  0  0  0  0  0  0  0  0  0  0  0
    1.1387   -1.3654    0.0000 N   0  0  0  0  0  0  0  0  0  0  0  0
    0.6538   -0.6979    0.0000 C   0  0  0  0  0  0  0  0  0  0  0  0
   -0.1712   -0.6979    0.0000 Br  0  0  0  0  0  0  0  0  0  0  0  0
    1.1387   -0.0305    0.0000 N   0  0  0  0  0  0  0  0  0  0  0  0
    1.9233   -0.2854    0.0000 C   0  0  0  0  0  0  0  0  0  0  0  0
    2.6378    0.1271    0.0000 C   0  0  0  0  0  0  0  0  0  0  0  0
    2.6378    0.9521    0.0000 N   0  0  0  0  0  0  0  0  0  0  0  0
    3.3523   -0.2854    0.0000 N   0  0  0  0  0  0  0  0  0  0  0  0
    3.3523   -1.1104    0.0000 C   0  0  0  0  0  0  0  0  0  0  0  0
    2.6378   -1.5229    0.0000 N   0  0  0  0  0  0  0  0  0  0  0  0
    1.9233   -1.1104    0.0000 C   0  0  0  0  0  0  0  0  0  0  0  0
  1  2  1  0  0  0  0
  2  3  2  0  0  0  0
  2  4  1  0  0  0  0
  4  5  1  0  0  0  0
  5  6  1  0  0  0  0
  6  7  1  0  0  0  0
  7  8  1  0  0  0  0
  8  9  1  0  0  0  0
  9 10  1  0  0  0  0
 10 11  1  0  0  0  0
 11 12  1  0  0  0  0
 11 13  2  0  0  0  0
  9 14  1  0  0  0  0
  6 14  1  0  0  0  0
 14 15  1  0  0  0  0
 15 16  1  0  0  0  0
 16 17  1  0  0  0  0
 16 18  2  0  0  0  0
  8 19  1  0  0  0  0
 19 20  1  0  0  0  0
 20 21  1  0  0  0  0
 20 22  2  0  0  0  0
 22 23  1  0  0  0  0
 23 24  1  0  0  0  0
 24 25  1  0  0  0  0
 24 26  2  0  0  0  0
 26 27  1  0  0  0  0
 27 28  2  0  0  0  0
 28 29  1  0  0  0  0
 23 29  2  0  0  0  0
 19 29  1  0  0  0  0
M  END
>  <Catalog ID>
Z56777085

>  <Plate_ID>
2026983-X50-01

>  <Well>
E06

>  <V, µL>
50

>  <Conc, mM>
10

>  <Formula>
C16H18BrN5O7

>  <MW>
472.2474

>  <Purity>
100

>  <PO>
5A-64168

>  <MW_salt>
0

>  <Stereochem.data>
Diastereomeric mixture

>  <Geometric.isomer>
None

>  <Chemical name>
[3,4-bis(acetyloxy)-5-(6-amino-8-bromo-9H-purin-9-yl)oxolan-2-yl]methyl acetate

>  <ClogP>
0,662

>  <logS>
-3,76

>  <HBD>
1

>  <HBA>
8

>  <TPSA>
157,75

>  <RotBonds>
8

$$$$

  Mrv1925 04172511352D          

 23 26  0  0  0  0            999 V2000
    0.6538   -0.6979    0.0000 C   0  0  0  0  0  0  0  0  0  0  0  0
    1.1387   -0.0305    0.0000 N   0  0  0  0  0  0  0  0  0  0  0  0
    1.9233   -0.2854    0.0000 C   0  0  0  0  0  0  0  0  0  0  0  0
    2.6378    0.1271    0.0000 C   0  0  0  0  0  0  0  0  0  0  0  0
    3.3523   -0.2854    0.0000 N   0  0  0  0  0  0  0  0  0  0  0  0
    3.3523   -1.1104    0.0000 C   0  0  0  0  0  0  0  0  0  0  0  0
    2.6378   -1.5229    0.0000 N   0  0  0  0  0  0  0  0  0  0  0  0
    1.9233   -1.1104    0.0000 C   0  0  0  0  0  0  0  0  0  0  0  0
    1.1387   -1.3654    0.0000 N   0  0  0  0  0  0  0  0  0  0  0  0
    0.8838   -2.1500    0.0000 C   0  0  0  0  0  0  0  0  0  0  0  0
    1.4358   -2.7631    0.0000 C   0  0  0  0  0  0  0  0  0  0  0  0
    1.1809   -3.5477    0.0000 C   0  0  0  0  0  0  0  0  0  0  0  0
    0.3739   -3.7192    0.0000 C   0  0  0  0  0  0  0  0  0  0  0  0
   -0.1781   -3.1062    0.0000 C   0  0  0  0  0  0  0  0  0  0  0  0
    0.0768   -2.3215    0.0000 O   0  0  0  0  0  0  0  0  0  0  0  0
    2.6378    0.9521    0.0000 N   0  0  0  0  0  0  0  0  0  0  0  0
    1.9233    1.3646    0.0000 C   0  0  0  0  0  0  0  0  0  0  0  0
    1.9233    2.1896    0.0000 C   0  0  0  0  0  0  0  0  0  0  0  0
    1.2089    2.6021    0.0000 C   0  0  0  0  0  0  0  0  0  0  0  0
    1.2089    3.4271    0.0000 C   0  0  0  0  0  0  0  0  0  0  0  0
    1.9233    3.8396    0.0000 C   0  0  0  0  0  0  0  0  0  0  0  0
    2.6378    3.4271    0.0000 C   0  0  0  0  0  0  0  0  0  0  0  0
    2.6378    2.6021    0.0000 C   0  0  0  0  0  0  0  0  0  0  0  0
  1  2  2  0  0  0  0
  2  3  1  0  0  0  0
  3  4  1  0  0  0  0
  4  5  2  0  0  0  0
  5  6  1  0  0  0  0
  6  7  2  0  0  0  0
  7  8  1  0  0  0  0
  3  8  2  0  0  0  0
  8  9  1  0  0  0  0
  1  9  1  0  0  0  0
  9 10  1  0  0  0  0
 10 11  1  0  0  0  0
 11 12  1  0  0  0  0
 12 13  1  0  0  0  0
 13 14  1  0  0  0  0
 14 15  1  0  0  0  0
 10 15  1  0  0  0  0
  4 16  1  0  0  0  0
 16 17  1  0  0  0  0
 17 18  1  0  0  0  0
 18 19  1  0  0  0  0
 19 20  2  0  0  0  0
 20 21  1  0  0  0  0
 21 22  2  0  0  0  0
 22 23  1  0  0  0  0
 18 23  2  0  0  0  0
M  END
>  <Catalog ID>
Z56780075

>  <Plate_ID>
2026983-X50-01

>  <Well>
F06

>  <V, µL>
50

>  <Conc, mM>
10

>  <Formula>
C17H19N5O

>  <MW>
309.3657

>  <Purity>
100

>  <PO>
5A-64168

>  <MW_salt>
0

>  <Stereochem.data>
Racemic or presumed racemic or meso

>  <Geometric.isomer>
None

>  <Chemical name>
N-benzyl-9-(oxan-2-yl)-9H-purin-6-amine

>  <ClogP>
2,42

>  <logS>
-3,72

>  <HBD>
1

>  <HBA>
5

>  <TPSA>
64,86

>  <RotBonds>
4

$$$$

  Mrv1925 04172511352D          

 28 31  0  0  0  0            999 V2000
    5.4957    3.1729    0.0000 O   0  0  0  0  0  0  0  0  0  0  0  0
    4.7812    3.5854    0.0000 C   0  0  0  0  0  0  0  0  0  0  0  0
    4.7812    4.4104    0.0000 C   0  0  0  0  0  0  0  0  0  0  0  0
    5.4957    4.8229    0.0000 N   0  0  0  0  0  0  0  0  0  0  0  0
    5.4957    5.6479    0.0000 C   0  0  0  0  0  0  0  0  0  0  0  0
    4.7812    6.0604    0.0000 O   0  0  0  0  0  0  0  0  0  0  0  0
    6.2102    6.0604    0.0000 C   0  0  0  0  0  0  0  0  0  0  0  0
    6.2102    6.8854    0.0000 F   0  0  0  0  0  0  0  0  0  0  0  0
    6.9246    5.6479    0.0000 C   0  0  0  0  0  0  0  0  0  0  0  0
    6.9246    4.8229    0.0000 N   0  0  0  0  0  0  0  0  0  0  0  0
    6.2102    4.4104    0.0000 C   0  0  0  0  0  0  0  0  0  0  0  0
    6.2102    3.5854    0.0000 O   0  0  0  0  0  0  0  0  0  0  0  0
    7.6391    4.4104    0.0000 C   0  0  0  0  0  0  0  0  0  0  0  0
    8.3928    4.7460    0.0000 C   0  0  0  0  0  0  0  0  0  0  0  0
    8.9448    4.1329    0.0000 C   0  0  0  0  0  0  0  0  0  0  0  0
    8.5323    3.4184    0.0000 C   0  0  0  0  0  0  0  0  0  0  0  0
    7.7253    3.5900    0.0000 O   0  0  0  0  0  0  0  0  0  0  0  0
    4.0668    3.1729    0.0000 N   0  0  0  0  0  0  0  0  0  0  0  0
    4.0668    2.3479    0.0000 C   0  0  0  0  0  0  0  0  0  0  0  0
    3.3523    1.9354    0.0000 C   0  0  0  0  0  0  0  0  0  0  0  0
    3.3523    1.1104    0.0000 C   0  0  0  0  0  0  0  0  0  0  0  0
    2.6378    0.6979    0.0000 C   0  0  0  0  0  0  0  0  0  0  0  0
    1.9233    1.1104    0.0000 C   0  0  0  0  0  0  0  0  0  0  0  0
    1.1387    0.8555    0.0000 O   0  0  0  0  0  0  0  0  0  0  0  0
    0.6538    1.5229    0.0000 C   0  0  0  0  0  0  0  0  0  0  0  0
    1.1387    2.1904    0.0000 O   0  0  0  0  0  0  0  0  0  0  0  0
    1.9233    1.9354    0.0000 C   0  0  0  0  0  0  0  0  0  0  0  0
    2.6378    2.3479    0.0000 C   0  0  0  0  0  0  0  0  0  0  0  0
  1  2  2  0  0  0  0
  2  3  1  0  0  0  0
  3  4  1  0  0  0  0
  4  5  1  0  0  0  0
  5  6  2  0  0  0  0
  5  7  1  0  0  0  0
  7  8  1  0  0  0  0
  7  9  2  0  0  0  0
  9 10  1  0  0  0  0
 10 11  1  0  0  0  0
  4 11  1  0  0  0  0
 11 12  2  0  0  0  0
 10 13  1  0  0  0  0
 13 14  1  0  0  0  0
 14 15  1  0  0  0  0
 15 16  1  0  0  0  0
 16 17  1  0  0  0  0
 13 17  1  0  0  0  0
  2 18  1  0  0  0  0
 18 19  1  0  0  0  0
 19 20  1  0  0  0  0
 20 21  2  0  0  0  0
 21 22  1  0  0  0  0
 22 23  2  0  0  0  0
 23 24  1  0  0  0  0
 24 25  1  0  0  0  0
 25 26  1  0  0  0  0
 26 27  1  0  0  0  0
 23 27  1  0  0  0  0
 27 28  2  0  0  0  0
 20 28  1  0  0  0  0
M  END
>  <Catalog ID>
Z107295544

>  <Plate_ID>
2026983-X50-01

>  <Well>
G06

>  <V, µL>
50

>  <Conc, mM>
10

>  <Formula>
C18H18FN3O6

>  <MW>
391.3504

>  <Purity>
96.96

>  <PO>
5A-64168

>  <MW_salt>
0

>  <Stereochem.data>
Racemic or presumed racemic or meso

>  <Geometric.isomer>
None

>  <Chemical name>
N-[(1,3-dioxaindan-5-yl)methyl]-2-[5-fluoro-2,6-dioxo-3-(oxolan-2-yl)-1,2,3,6-tetrahydropyrimidin-1-yl]acetamide

>  <ClogP>
2,036

>  <logS>
-2,81

>  <HBD>
1

>  <HBA>
6

>  <TPSA>
97,41

>  <RotBonds>
5

$$$$

  Mrv1925 04172511352D          

 30 33  0  0  0  0            999 V2000
    1.4289   -1.6500    0.0000 C   0  0  0  0  0  0  0  0  0  0  0  0
    1.4289   -2.4750    0.0000 C   0  0  0  0  0  0  0  0  0  0  0  0
    2.0964   -2.9599    0.0000 C   0  0  0  0  0  0  0  0  0  0  0  0
    1.8414   -3.7445    0.0000 C   0  0  0  0  0  0  0  0  0  0  0  0
    2.3264   -4.4120    0.0000 C   0  0  0  0  0  0  0  0  0  0  0  0
    1.9908   -5.1657    0.0000 O   0  0  0  0  0  0  0  0  0  0  0  0
    3.1468   -4.3257    0.0000 C   0  0  0  0  0  0  0  0  0  0  0  0
    3.6318   -4.9932    0.0000 N   0  0  0  0  0  0  0  0  0  0  0  0
    4.4522   -4.9070    0.0000 C   0  0  0  0  0  0  0  0  0  0  0  0
    4.7878   -4.1533    0.0000 O   0  0  0  0  0  0  0  0  0  0  0  0
    4.9372   -5.5744    0.0000 C   0  0  0  0  0  0  0  0  0  0  0  0
    5.7577   -5.4882    0.0000 F   0  0  0  0  0  0  0  0  0  0  0  0
    4.6016   -6.3281    0.0000 C   0  0  0  0  0  0  0  0  0  0  0  0
    3.7811   -6.4143    0.0000 N   0  0  0  0  0  0  0  0  0  0  0  0
    3.2962   -5.7469    0.0000 C   0  0  0  0  0  0  0  0  0  0  0  0
    2.4757   -5.8331    0.0000 O   0  0  0  0  0  0  0  0  0  0  0  0
    3.4456   -7.1680    0.0000 C   0  0  0  0  0  0  0  0  0  0  0  0
    3.8581   -7.8824    0.0000 C   0  0  0  0  0  0  0  0  0  0  0  0
    3.3060   -8.4955    0.0000 C   0  0  0  0  0  0  0  0  0  0  0  0
    2.5524   -8.1600    0.0000 C   0  0  0  0  0  0  0  0  0  0  0  0
    2.6386   -7.3395    0.0000 O   0  0  0  0  0  0  0  0  0  0  0  0
    1.0164   -3.7445    0.0000 C   0  0  0  0  0  0  0  0  0  0  0  0
    0.5315   -4.4120    0.0000 C   0  0  0  0  0  0  0  0  0  0  0  0
    0.7615   -2.9599    0.0000 N   0  0  0  0  0  0  0  0  0  0  0  0
   -0.0231   -2.7050    0.0000 C   0  0  0  0  0  0  0  0  0  0  0  0
   -0.1946   -1.8980    0.0000 C   0  0  0  0  0  0  0  0  0  0  0  0
   -0.9483   -1.5625    0.0000 C   0  0  0  0  0  0  0  0  0  0  0  0
   -0.8621   -0.7420    0.0000 C   0  0  0  0  0  0  0  0  0  0  0  0
   -0.0551   -0.5704    0.0000 C   0  0  0  0  0  0  0  0  0  0  0  0
    0.3574   -1.2849    0.0000 O   0  0  0  0  0  0  0  0  0  0  0  0
  1  2  1  0  0  0  0
  2  3  2  0  0  0  0
  3  4  1  0  0  0  0
  4  5  1  0  0  0  0
  5  6  2  0  0  0  0
  5  7  1  0  0  0  0
  7  8  1  0  0  0  0
  8  9  1  0  0  0  0
  9 10  2  0  0  0  0
  9 11  1  0  0  0  0
 11 12  1  0  0  0  0
 11 13  2  0  0  0  0
 13 14  1  0  0  0  0
 14 15  1  0  0  0  0
  8 15  1  0  0  0  0
 15 16  2  0  0  0  0
 14 17  1  0  0  0  0
 17 18  1  0  0  0  0
 18 19  1  0  0  0  0
 19 20  1  0  0  0  0
 20 21  1  0  0  0  0
 17 21  1  0  0  0  0
  4 22  2  0  0  0  0
 22 23  1  0  0  0  0
 22 24  1  0  0  0  0
  2 24  1  0  0  0  0
 24 25  1  0  0  0  0
 25 26  1  0  0  0  0
 26 27  2  0  0  0  0
 27 28  1  0  0  0  0
 28 29  2  0  0  0  0
 29 30  1  0  0  0  0
 26 30  1  0  0  0  0
M  END
>  <Catalog ID>
Z94559538

>  <Plate_ID>
2026983-X50-01

>  <Well>
H06

>  <V, µL>
50

>  <Conc, mM>
10

>  <Formula>
C21H22FN3O5

>  <MW>
415.4149

>  <Purity>
100

>  <PO>
5A-64168

>  <MW_salt>
0

>  <Stereochem.data>
Racemic or presumed racemic or meso

>  <Geometric.isomer>
None

>  <Chemical name>
5-fluoro-3-(2-{1-[(furan-2-yl)methyl]-2,5-dimethyl-1H-pyrrol-3-yl}-2-oxoethyl)-1-(oxolan-2-yl)-1,2,3,4-tetrahydropyrimidine-2,4-dione

>  <ClogP>
3,278

>  <logS>
-2,39

>  <HBD>
0

>  <HBA>
4

>  <TPSA>
84,99

>  <RotBonds>
6

$$$$

  Mrv1925 04172511352D          

 26 29  0  0  1  0            999 V2000
    0.8646   -3.5628    0.0000 C   0  0  0  0  0  0  0  0  0  0  0  0
    0.1544   -3.1429    0.0000 C   0  0  0  0  0  0  0  0  0  0  0  0
   -0.6027   -3.4705    0.0000 O   0  0  0  0  0  0  0  0  0  0  0  0
   -1.1483   -2.8517    0.0000 C   0  0  0  0  0  0  0  0  0  0  0  0
   -0.7283   -2.1416    0.0000 C   0  0  0  0  0  0  0  0  0  0  0  0
    0.0768   -2.3215    0.0000 C   0  0  0  0  0  0  0  0  0  0  0  0
    0.3481   -1.5424    0.0000 O   0  0  0  0  0  0  0  0  0  0  0  0
    0.8838   -2.1500    0.0000 C   0  0  0  0  0  0  0  0  0  0  0  0
    1.1387   -1.3654    0.0000 N   0  0  0  0  0  0  0  0  0  0  0  0
    0.6538   -0.6979    0.0000 C   0  0  0  0  0  0  0  0  0  0  0  0
    1.1387   -0.0305    0.0000 N   0  0  0  0  0  0  0  0  0  0  0  0
    1.9233   -0.2854    0.0000 C   0  0  0  0  0  0  0  0  0  0  0  0
    2.6378    0.1271    0.0000 C   0  0  0  0  0  0  0  0  0  0  0  0
    3.3523   -0.2854    0.0000 N   0  0  0  0  0  0  0  0  0  0  0  0
    3.3523   -1.1104    0.0000 C   0  0  0  0  0  0  0  0  0  0  0  0
    2.6378   -1.5229    0.0000 N   0  0  0  0  0  0  0  0  0  0  0  0
    1.9233   -1.1104    0.0000 C   0  0  0  0  0  0  0  0  0  0  0  0
    2.6378    0.9521    0.0000 N   0  0  0  0  0  0  0  0  0  0  0  0
    1.9704    1.4370    0.0000 C   0  0  0  0  0  0  0  0  0  0  0  0
    2.2253    2.2216    0.0000 C   0  0  2  0  0  0  0  0  0  0  0  0
    1.7404    2.8890    0.0000 F   0  0  0  0  0  0  0  0  0  0  0  0
    3.0503    2.2216    0.0000 C   0  0  0  0  0  0  0  0  0  0  0  0
    3.3053    1.4370    0.0000 C   0  0  1  0  0  0  0  0  0  0  0  0
    4.0899    1.1820    0.0000 C   0  0  0  0  0  0  0  0  0  0  0  0
    4.2614    0.3751    0.0000 N   0  0  0  0  0  0  0  0  0  0  0  0
    4.7030    1.7341    0.0000 O   0  0  0  0  0  0  0  0  0  0  0  0
  1  2  1  0  0  0  0
  2  3  1  0  0  0  0
  3  4  1  0  0  0  0
  4  5  1  0  0  0  0
  5  6  1  0  0  0  0
  2  6  1  0  0  0  0
  6  7  1  0  0  0  0
  6  8  1  0  0  0  0
  8  9  1  0  0  0  0
  9 10  1  0  0  0  0
 10 11  2  0  0  0  0
 11 12  1  0  0  0  0
 12 13  1  0  0  0  0
 13 14  2  0  0  0  0
 14 15  1  0  0  0  0
 15 16  2  0  0  0  0
 16 17  1  0  0  0  0
 12 17  2  0  0  0  0
  9 17  1  0  0  0  0
 13 18  1  0  0  0  0
 18 19  1  0  0  0  0
 20 19  1  0  0  0  0
 20 21  1  6  0  0  0
 20 22  1  0  0  0  0
 23 22  1  0  0  0  0
 23 18  1  0  0  0  0
 23 24  1  1  0  0  0
 24 25  1  0  0  0  0
 24 26  2  0  0  0  0
M  END
>  <Catalog ID>
Z2760969008

>  <Plate_ID>
2026983-X50-01

>  <Well>
A07

>  <V, µL>
50

>  <Conc, mM>
10

>  <Formula>
C16H21FN6O3

>  <MW>
364.3747

>  <Purity>
100

>  <PO>
5A-64168

>  <MW_salt>
0

>  <Stereochem.data>
Diastereomeric mixture

>  <Geometric.isomer>
None

>  <Chemical name>
(2S,4R)-4-fluoro-1-{9-[(3-hydroxy-2-methyloxolan-3-yl)methyl]-9H-purin-6-yl}pyrrolidine-2-carboxamide

>  <ClogP>
-1,174

>  <logS>
-3,153

>  <HBD>
2

>  <HBA>
7

>  <TPSA>
119,39

>  <RotBonds>
4

$$$$

  Mrv1925 04172511352D          

 28 30  0  0  0  0            999 V2000
   -0.9355   -2.8875    0.0000 C   0  0  0  0  0  0  0  0  0  0  0  0
   -0.5230   -2.1730    0.0000 C   0  0  0  0  0  0  0  0  0  0  0  0
    0.3020   -2.1730    0.0000 C   0  0  0  0  0  0  0  0  0  0  0  0
    0.7145   -2.8875    0.0000 C   0  0  0  0  0  0  0  0  0  0  0  0
    0.3020   -3.6020    0.0000 C   0  0  0  0  0  0  0  0  0  0  0  0
    0.7145   -1.4586    0.0000 C   0  0  0  0  0  0  0  0  0  0  0  0
    1.5395   -1.4586    0.0000 N   0  0  0  0  0  0  0  0  0  0  0  0
    1.9520   -2.1730    0.0000 C   0  0  0  0  0  0  0  0  0  0  0  0
    2.7770   -2.1730    0.0000 C   0  0  0  0  0  0  0  0  0  0  0  0
    3.1895   -2.8875    0.0000 C   0  0  0  0  0  0  0  0  0  0  0  0
    3.6020   -3.6020    0.0000 N   0  0  0  0  0  0  0  0  0  0  0  0
    1.9520   -0.7441    0.0000 C   0  0  0  0  0  0  0  0  0  0  0  0
    1.5395   -0.0296    0.0000 N   0  0  0  0  0  0  0  0  0  0  0  0
    1.9520    0.6849    0.0000 C   0  0  0  0  0  0  0  0  0  0  0  0
    2.7770    0.6849    0.0000 N   0  0  0  0  0  0  0  0  0  0  0  0
    3.1895   -0.0296    0.0000 C   0  0  0  0  0  0  0  0  0  0  0  0
    2.7770   -0.7441    0.0000 C   0  0  0  0  0  0  0  0  0  0  0  0
    3.3290   -1.3572    0.0000 N   0  0  0  0  0  0  0  0  0  0  0  0
    4.0827   -1.0216    0.0000 C   0  0  0  0  0  0  0  0  0  0  0  0
    3.9964   -0.2011    0.0000 N   0  0  0  0  0  0  0  0  0  0  0  0
    4.6095    0.3509    0.0000 C   0  0  0  0  0  0  0  0  0  0  0  0
    4.4380    1.1579    0.0000 C   0  0  0  0  0  0  0  0  0  0  0  0
    3.6534    1.4128    0.0000 O   0  0  0  0  0  0  0  0  0  0  0  0
    5.0511    1.7099    0.0000 C   0  0  0  0  0  0  0  0  0  0  0  0
    4.9649    2.5304    0.0000 C   0  0  0  0  0  0  0  0  0  0  0  0
    5.7185    2.8659    0.0000 C   0  0  0  0  0  0  0  0  0  0  0  0
    6.2706    2.2528    0.0000 C   0  0  0  0  0  0  0  0  0  0  0  0
    5.8581    1.5384    0.0000 O   0  0  0  0  0  0  0  0  0  0  0  0
  1  2  1  0  0  0  0
  2  3  1  0  0  0  0
  3  4  1  0  0  0  0
  4  5  1  0  0  0  0
  3  6  1  0  0  0  0
  6  7  1  0  0  0  0
  7  8  1  0  0  0  0
  8  9  1  0  0  0  0
  9 10  1  0  0  0  0
 10 11  3  0  0  0  0
  7 12  1  0  0  0  0
 12 13  1  0  0  0  0
 13 14  2  0  0  0  0
 14 15  1  0  0  0  0
 15 16  2  0  0  0  0
 16 17  1  0  0  0  0
 12 17  2  0  0  0  0
 17 18  1  0  0  0  0
 18 19  2  0  0  0  0
 19 20  1  0  0  0  0
 16 20  1  0  0  0  0
 20 21  1  0  0  0  0
 21 22  1  0  0  0  0
 22 23  1  0  0  0  0
 22 24  1  0  0  0  0
 24 25  1  0  0  0  0
 25 26  1  0  0  0  0
 26 27  1  0  0  0  0
 27 28  1  0  0  0  0
 24 28  1  0  0  0  0
M  END
>  <Catalog ID>
Z2760944633

>  <Plate_ID>
2026983-X50-01

>  <Well>
B07

>  <V, µL>
50

>  <Conc, mM>
10

>  <Formula>
C20H30N6O2

>  <MW>
386.4912

>  <Purity>
100

>  <PO>
5A-64168

>  <MW_salt>
0

>  <Stereochem.data>
Diastereomeric mixture

>  <Geometric.isomer>
None

>  <Chemical name>
3-[(2-ethylbutyl)({9-[2-hydroxy-2-(oxolan-2-yl)ethyl]-9H-purin-6-yl})amino]propanenitrile

>  <ClogP>
2,083

>  <logS>
-4,5

>  <HBD>
1

>  <HBA>
7

>  <TPSA>
100,09

>  <RotBonds>
10

$$$$

  Mrv1925 04172511352D          

 26 28  0  0  0  0            999 V2000
   -0.9845   -3.6671    0.0000 C   0  0  0  0  0  0  0  0  0  0  0  0
   -0.7145   -2.8875    0.0000 O   0  0  0  0  0  0  0  0  0  0  0  0
    0.0957   -2.7316    0.0000 C   0  0  0  0  0  0  0  0  0  0  0  0
    0.3657   -1.9520    0.0000 C   0  0  0  0  0  0  0  0  0  0  0  0
    1.1758   -1.7961    0.0000 N   0  0  0  0  0  0  0  0  0  0  0  0
    1.7159   -2.4198    0.0000 C   0  0  0  0  0  0  0  0  0  0  0  0
    2.5261   -2.2639    0.0000 C   0  0  0  0  0  0  0  0  0  0  0  0
    3.0662   -2.8875    0.0000 C   0  0  0  0  0  0  0  0  0  0  0  0
    3.6062   -3.5111    0.0000 N   0  0  0  0  0  0  0  0  0  0  0  0
    1.4459   -1.0166    0.0000 C   0  0  0  0  0  0  0  0  0  0  0  0
    0.9058   -0.3929    0.0000 N   0  0  0  0  0  0  0  0  0  0  0  0
    1.1758    0.3866    0.0000 C   0  0  0  0  0  0  0  0  0  0  0  0
    1.9860    0.5425    0.0000 N   0  0  0  0  0  0  0  0  0  0  0  0
    2.5261   -0.0811    0.0000 C   0  0  0  0  0  0  0  0  0  0  0  0
    2.2560   -0.8607    0.0000 C   0  0  0  0  0  0  0  0  0  0  0  0
    2.9140   -1.3584    0.0000 N   0  0  0  0  0  0  0  0  0  0  0  0
    3.5906   -0.8864    0.0000 C   0  0  0  0  0  0  0  0  0  0  0  0
    3.3509   -0.0970    0.0000 N   0  0  0  0  0  0  0  0  0  0  0  0
    3.8486    0.5609    0.0000 C   0  0  0  0  0  0  0  0  0  0  0  0
    4.6673    0.4588    0.0000 C   0  0  0  0  0  0  0  0  0  0  0  0
    4.4802   -0.3447    0.0000 O   0  0  0  0  0  0  0  0  0  0  0  0
    4.6832    1.2837    0.0000 C   0  0  0  0  0  0  0  0  0  0  0  0
    5.4726    1.5234    0.0000 C   0  0  0  0  0  0  0  0  0  0  0  0
    5.9446    0.8467    0.0000 O   0  0  0  0  0  0  0  0  0  0  0  0
    5.4468    0.1888    0.0000 C   0  0  0  0  0  0  0  0  0  0  0  0
    5.6866   -0.6006    0.0000 C   0  0  0  0  0  0  0  0  0  0  0  0
  1  2  1  0  0  0  0
  2  3  1  0  0  0  0
  3  4  1  0  0  0  0
  4  5  1  0  0  0  0
  5  6  1  0  0  0  0
  6  7  1  0  0  0  0
  7  8  1  0  0  0  0
  8  9  3  0  0  0  0
  5 10  1  0  0  0  0
 10 11  1  0  0  0  0
 11 12  2  0  0  0  0
 12 13  1  0  0  0  0
 13 14  2  0  0  0  0
 14 15  1  0  0  0  0
 10 15  2  0  0  0  0
 15 16  1  0  0  0  0
 16 17  2  0  0  0  0
 17 18  1  0  0  0  0
 14 18  1  0  0  0  0
 18 19  1  0  0  0  0
 19 20  1  0  0  0  0
 20 21  1  0  0  0  0
 20 22  1  0  0  0  0
 22 23  1  0  0  0  0
 23 24  1  0  0  0  0
 24 25  1  0  0  0  0
 20 25  1  0  0  0  0
 25 26  1  0  0  0  0
M  END
>  <Catalog ID>
Z2760943690

>  <Plate_ID>
2026983-X50-01

>  <Well>
C07

>  <V, µL>
50

>  <Conc, mM>
10

>  <Formula>
C17H24N6O3

>  <MW>
360.4109

>  <Purity>
99

>  <PO>
5A-64168

>  <MW_salt>
0

>  <Stereochem.data>
Diastereomeric mixture

>  <Geometric.isomer>
Unknown

>  <Chemical name>
3-({9-[(3-hydroxy-2-methyloxolan-3-yl)methyl]-9H-purin-6-yl}(2-methoxyethyl)amino)propanenitrile

>  <ClogP>
-0,3

>  <logS>
-2,561

>  <HBD>
1

>  <HBA>
8

>  <TPSA>
109,32

>  <RotBonds>
8

$$$$

  Mrv1925 04172511352D          

 29 33  0  0  0  0            999 V2000
    3.5230    6.1174    0.0000 C   0  0  0  0  0  0  0  0  0  0  0  0
    3.9877    5.4358    0.0000 C   0  0  0  0  0  0  0  0  0  0  0  0
    4.7310    5.0778    0.0000 C   0  0  0  0  0  0  0  0  0  0  0  0
    4.0494    4.6131    0.0000 C   0  0  0  0  0  0  0  0  0  0  0  0
    3.6914    3.8698    0.0000 N   0  0  0  0  0  0  0  0  0  0  0  0
    4.2058    3.2248    0.0000 C   0  0  0  0  0  0  0  0  0  0  0  0
    4.0222    2.4205    0.0000 C   0  0  0  0  0  0  0  0  0  0  0  0
    3.2789    2.0625    0.0000 N   0  0  0  0  0  0  0  0  0  0  0  0
    2.5356    2.4205    0.0000 C   0  0  0  0  0  0  0  0  0  0  0  0
    2.3520    3.2248    0.0000 C   0  0  0  0  0  0  0  0  0  0  0  0
    1.5477    3.4083    0.0000 C   0  0  0  0  0  0  0  0  0  0  0  0
    2.8664    3.8698    0.0000 C   0  0  0  0  0  0  0  0  0  0  0  0
    3.2789    1.2375    0.0000 C   0  0  0  0  0  0  0  0  0  0  0  0
    3.9934    0.8250    0.0000 N   0  0  0  0  0  0  0  0  0  0  0  0
    3.9934    0.0000    0.0000 C   0  0  0  0  0  0  0  0  0  0  0  0
    3.2789   -0.4125    0.0000 N   0  0  0  0  0  0  0  0  0  0  0  0
    2.5645    0.0000    0.0000 C   0  0  0  0  0  0  0  0  0  0  0  0
    2.5645    0.8250    0.0000 C   0  0  0  0  0  0  0  0  0  0  0  0
    1.7798    1.0799    0.0000 N   0  0  0  0  0  0  0  0  0  0  0  0
    1.2949    0.4125    0.0000 C   0  0  0  0  0  0  0  0  0  0  0  0
    1.7798   -0.2549    0.0000 N   0  0  0  0  0  0  0  0  0  0  0  0
    1.5249   -1.0396    0.0000 C   0  0  0  0  0  0  0  0  0  0  0  0
    2.0769   -1.6527    0.0000 C   0  0  0  0  0  0  0  0  0  0  0  0
    1.3773   -2.0898    0.0000 O   0  0  0  0  0  0  0  0  0  0  0  0
    2.5848   -1.0025    0.0000 C   0  0  0  0  0  0  0  0  0  0  0  0
    3.4018   -1.1174    0.0000 C   0  0  0  0  0  0  0  0  0  0  0  0
    3.7109   -1.8823    0.0000 O   0  0  0  0  0  0  0  0  0  0  0  0
    3.2030   -2.5324    0.0000 C   0  0  0  0  0  0  0  0  0  0  0  0
    2.3860   -2.4176    0.0000 C   0  0  0  0  0  0  0  0  0  0  0  0
  1  2  1  0  0  0  0
  2  3  1  0  0  0  0
  3  4  1  0  0  0  0
  2  4  1  0  0  0  0
  4  5  1  0  0  0  0
  5  6  1  0  0  0  0
  6  7  1  0  0  0  0
  7  8  1  0  0  0  0
  8  9  1  0  0  0  0
  9 10  1  0  0  0  0
 10 11  1  0  0  0  0
 10 12  1  0  0  0  0
  5 12  1  0  0  0  0
  8 13  1  0  0  0  0
 13 14  1  0  0  0  0
 14 15  2  0  0  0  0
 15 16  1  0  0  0  0
 16 17  2  0  0  0  0
 17 18  1  0  0  0  0
 13 18  2  0  0  0  0
 18 19  1  0  0  0  0
 19 20  2  0  0  0  0
 20 21  1  0  0  0  0
 17 21  1  0  0  0  0
 21 22  1  0  0  0  0
 22 23  1  0  0  0  0
 23 24  1  0  0  0  0
 23 25  1  0  0  0  0
 25 26  1  0  0  0  0
 26 27  1  0  0  0  0
 27 28  1  0  0  0  0
 28 29  1  0  0  0  0
 23 29  1  0  0  0  0
M  END
>  <Catalog ID>
Z2760972409

>  <Plate_ID>
2026983-X50-01

>  <Well>
D07

>  <V, µL>
50

>  <Conc, mM>
10

>  <Formula>
C21H32N6O2

>  <MW>
400.5178

>  <Purity>
100

>  <PO>
5A-64168

>  <MW_salt>
0

>  <Stereochem.data>
Diastereomeric mixture

>  <Geometric.isomer>
None

>  <Chemical name>
4-({6-[6-methyl-4-(2-methylcyclopropyl)-1,4-diazepan-1-yl]-9H-purin-9-yl}methyl)oxan-4-ol

>  <ClogP>
0,497

>  <logS>
-3,247

>  <HBD>
1

>  <HBA>
7

>  <TPSA>
79,54

>  <RotBonds>
4

$$$$

  Mrv1925 04172511352D          

 22 23  0  0  1  0            999 V2000
    2.1434   -1.2375    0.0000 C   0  0  0  0  0  0  0  0  0  0  0  0
    2.8579   -1.6500    0.0000 C   0  0  0  0  0  0  0  0  0  0  0  0
    3.5724   -1.2375    0.0000 C   0  0  0  0  0  0  0  0  0  0  0  0
    2.8579   -2.4750    0.0000 N   0  0  0  0  0  0  0  0  0  0  0  0
    3.5724   -2.8875    0.0000 C   0  0  0  0  0  0  0  0  0  0  0  0
    3.5724   -3.7125    0.0000 C   0  0  0  0  0  0  0  0  0  0  0  0
    4.2868   -4.1250    0.0000 C   0  0  0  0  0  0  0  0  0  0  0  0
    4.2868   -4.9500    0.0000 N   0  0  0  0  0  0  0  0  0  0  0  0
    5.0013   -5.3625    0.0000 C   0  0  0  0  0  0  0  0  0  0  0  0
    5.7158   -4.9500    0.0000 O   0  0  0  0  0  0  0  0  0  0  0  0
    5.0013   -6.1875    0.0000 N   0  0  0  0  0  0  0  0  0  0  0  0
    5.7158   -6.6000    0.0000 C   0  0  0  0  0  0  0  0  0  0  0  0
    5.7158   -7.4250    0.0000 C   0  0  0  0  0  0  0  0  0  0  0  0
    5.0013   -7.8375    0.0000 O   0  0  0  0  0  0  0  0  0  0  0  0
    4.2868   -7.4250    0.0000 C   0  0  0  0  0  0  0  0  0  0  0  0
    4.2868   -6.6000    0.0000 C   0  0  1  0  0  0  0  0  0  0  0  0
    3.5724   -6.1875    0.0000 C   0  0  0  0  0  0  0  0  0  0  0  0
    2.8579   -4.1250    0.0000 C   0  0  0  0  0  0  0  0  0  0  0  0
    2.8579   -4.9500    0.0000 O   0  0  0  0  0  0  0  0  0  0  0  0
    2.1434   -3.7125    0.0000 N   0  0  0  0  0  0  0  0  0  0  0  0
    2.1434   -2.8875    0.0000 C   0  0  0  0  0  0  0  0  0  0  0  0
    1.4289   -2.4750    0.0000 O   0  0  0  0  0  0  0  0  0  0  0  0
  1  2  1  0  0  0  0
  2  3  1  0  0  0  0
  2  4  1  0  0  0  0
  4  5  1  0  0  0  0
  5  6  2  0  0  0  0
  6  7  1  0  0  0  0
  7  8  1  0  0  0  0
  8  9  1  0  0  0  0
  9 10  2  0  0  0  0
  9 11  1  0  0  0  0
 11 12  1  0  0  0  0
 12 13  1  0  0  0  0
 13 14  1  0  0  0  0
 14 15  1  0  0  0  0
 16 15  1  0  0  0  0
 16 11  1  0  0  0  0
 16 17  1  1  0  0  0
  6 18  1  0  0  0  0
 18 19  2  0  0  0  0
 18 20  1  0  0  0  0
 20 21  1  0  0  0  0
  4 21  1  0  0  0  0
 21 22  2  0  0  0  0
M  END
>  <Catalog ID>
Z3141238105

>  <Plate_ID>
2026983-X50-01

>  <Well>
E07

>  <V, µL>
50

>  <Conc, mM>
10

>  <Formula>
C14H22N4O4

>  <MW>
310.3489

>  <Purity>
100

>  <PO>
5A-64168

>  <MW_salt>
0

>  <Stereochem.data>
Single known enantiomer

>  <Geometric.isomer>
None

>  <Chemical name>
(3R)-N-{[2,4-dioxo-1-(propan-2-yl)-1,2,3,4-tetrahydropyrimidin-5-yl]methyl}-3-methylmorpholine-4-carboxamide

>  <ClogP>
-0,61

>  <logS>
-1,894

>  <HBD>
2

>  <HBA>
4

>  <TPSA>
90,98

>  <RotBonds>
3

$$$$

  Mrv1925 04172511352D          

 28 30  0  0  0  0            999 V2000
    2.5645    3.3000    0.0000 C   0  0  0  0  0  0  0  0  0  0  0  0
    2.5645    2.4750    0.0000 C   0  0  0  0  0  0  0  0  0  0  0  0
    3.2789    2.0625    0.0000 N   0  0  0  0  0  0  0  0  0  0  0  0
    3.2789    1.2375    0.0000 C   0  0  0  0  0  0  0  0  0  0  0  0
    3.9934    0.8250    0.0000 N   0  0  0  0  0  0  0  0  0  0  0  0
    3.9934    0.0000    0.0000 C   0  0  0  0  0  0  0  0  0  0  0  0
    3.2789   -0.4125    0.0000 N   0  0  0  0  0  0  0  0  0  0  0  0
    2.5645    0.0000    0.0000 C   0  0  0  0  0  0  0  0  0  0  0  0
    2.5645    0.8250    0.0000 C   0  0  0  0  0  0  0  0  0  0  0  0
    1.7798    1.0799    0.0000 N   0  0  0  0  0  0  0  0  0  0  0  0
    1.2949    0.4125    0.0000 C   0  0  0  0  0  0  0  0  0  0  0  0
    1.7798   -0.2549    0.0000 N   0  0  0  0  0  0  0  0  0  0  0  0
    1.5249   -1.0396    0.0000 C   0  0  0  0  0  0  0  0  0  0  0  0
    0.7179   -1.2111    0.0000 C   0  0  0  0  0  0  0  0  0  0  0  0
    0.1659   -0.5980    0.0000 C   0  0  0  0  0  0  0  0  0  0  0  0
   -0.6411   -0.7695    0.0000 O   0  0  0  0  0  0  0  0  0  0  0  0
    0.4630   -1.9957    0.0000 C   0  0  0  0  0  0  0  0  0  0  0  0
    0.9479   -2.6631    0.0000 C   0  0  0  0  0  0  0  0  0  0  0  0
    0.4630   -3.3306    0.0000 C   0  0  0  0  0  0  0  0  0  0  0  0
   -0.3216   -3.0756    0.0000 O   0  0  0  0  0  0  0  0  0  0  0  0
   -0.3216   -2.2506    0.0000 C   0  0  0  0  0  0  0  0  0  0  0  0
    3.9934    2.4750    0.0000 C   0  0  0  0  0  0  0  0  0  0  0  0
    3.9934    3.3000    0.0000 C   0  0  0  0  0  0  0  0  0  0  0  0
    4.7079    2.0625    0.0000 C   0  0  0  0  0  0  0  0  0  0  0  0
    5.4223    2.4750    0.0000 S   0  0  0  0  0  0  0  0  0  0  0  0
    6.1368    2.8875    0.0000 C   0  0  0  0  0  0  0  0  0  0  0  0
    5.8348    1.7605    0.0000 O   0  0  0  0  0  0  0  0  0  0  0  0
    5.0098    3.1895    0.0000 O   0  0  0  0  0  0  0  0  0  0  0  0
  1  2  1  0  0  0  0
  2  3  1  0  0  0  0
  3  4  1  0  0  0  0
  4  5  1  0  0  0  0
  5  6  2  0  0  0  0
  6  7  1  0  0  0  0
  7  8  2  0  0  0  0
  8  9  1  0  0  0  0
  4  9  2  0  0  0  0
  9 10  1  0  0  0  0
 10 11  2  0  0  0  0
 11 12  1  0  0  0  0
  8 12  1  0  0  0  0
 12 13  1  0  0  0  0
 13 14  1  0  0  0  0
 14 15  1  0  0  0  0
 15 16  1  0  0  0  0
 14 17  1  0  0  0  0
 17 18  1  0  0  0  0
 18 19  1  0  0  0  0
 19 20  1  0  0  0  0
 20 21  1  0  0  0  0
 17 21  1  0  0  0  0
  3 22  1  0  0  0  0
 22 23  1  0  0  0  0
 22 24  1  0  0  0  0
 24 25  1  0  0  0  0
 25 26  1  0  0  0  0
 25 27  2  0  0  0  0
 25 28  2  0  0  0  0
M  END
>  <Catalog ID>
Z2760947107

>  <Plate_ID>
2026983-X50-01

>  <Well>
F07

>  <V, µL>
50

>  <Conc, mM>
10

>  <Formula>
C18H29N5O4S

>  <MW>
411.519

>  <Purity>
93.63

>  <PO>
5A-64168

>  <MW_salt>
0

>  <Stereochem.data>
Diastereomeric mixture

>  <Geometric.isomer>
None

>  <Chemical name>
3-{6-[ethyl(1-methanesulfonylpropan-2-yl)amino]-9H-purin-9-yl}-2-(oxolan-3-yl)propan-1-ol

>  <ClogP>
-0,594

>  <logS>
-2,241

>  <HBD>
1

>  <HBA>
8

>  <TPSA>
110,44

>  <RotBonds>
9

$$$$

  Mrv1925 04172511352D          

 28 31  0  0  0  0            999 V2000
    5.4223    4.9500    0.0000 C   0  0  0  0  0  0  0  0  0  0  0  0
    4.7079    4.5375    0.0000 O   0  0  0  0  0  0  0  0  0  0  0  0
    4.7079    3.7125    0.0000 C   0  0  0  0  0  0  0  0  0  0  0  0
    3.9934    3.3000    0.0000 C   0  0  0  0  0  0  0  0  0  0  0  0
    3.9934    2.4750    0.0000 C   0  0  0  0  0  0  0  0  0  0  0  0
    3.2789    2.0625    0.0000 N   0  0  0  0  0  0  0  0  0  0  0  0
    2.5645    2.4750    0.0000 C   0  0  0  0  0  0  0  0  0  0  0  0
    2.5645    3.3000    0.0000 C   0  0  0  0  0  0  0  0  0  0  0  0
    1.8500    3.7125    0.0000 C   0  0  0  0  0  0  0  0  0  0  0  0
    3.2789    3.7125    0.0000 O   0  0  0  0  0  0  0  0  0  0  0  0
    3.2789    1.2375    0.0000 C   0  0  0  0  0  0  0  0  0  0  0  0
    3.9934    0.8250    0.0000 N   0  0  0  0  0  0  0  0  0  0  0  0
    3.9934    0.0000    0.0000 C   0  0  0  0  0  0  0  0  0  0  0  0
    3.2789   -0.4125    0.0000 N   0  0  0  0  0  0  0  0  0  0  0  0
    2.5645    0.0000    0.0000 C   0  0  0  0  0  0  0  0  0  0  0  0
    2.5645    0.8250    0.0000 C   0  0  0  0  0  0  0  0  0  0  0  0
    1.7798    1.0799    0.0000 N   0  0  0  0  0  0  0  0  0  0  0  0
    1.2949    0.4125    0.0000 C   0  0  0  0  0  0  0  0  0  0  0  0
    1.7798   -0.2549    0.0000 N   0  0  0  0  0  0  0  0  0  0  0  0
    1.5249   -1.0396    0.0000 C   0  0  0  0  0  0  0  0  0  0  0  0
    2.0769   -1.6527    0.0000 C   0  0  0  0  0  0  0  0  0  0  0  0
    1.3773   -2.0898    0.0000 C   0  0  0  0  0  0  0  0  0  0  0  0
    1.4061   -2.9143    0.0000 O   0  0  0  0  0  0  0  0  0  0  0  0
    2.5848   -1.0025    0.0000 C   0  0  0  0  0  0  0  0  0  0  0  0
    3.4018   -1.1174    0.0000 C   0  0  0  0  0  0  0  0  0  0  0  0
    3.7109   -1.8823    0.0000 O   0  0  0  0  0  0  0  0  0  0  0  0
    3.2030   -2.5324    0.0000 C   0  0  0  0  0  0  0  0  0  0  0  0
    2.3860   -2.4176    0.0000 C   0  0  0  0  0  0  0  0  0  0  0  0
  1  2  1  0  0  0  0
  2  3  1  0  0  0  0
  3  4  1  0  0  0  0
  4  5  1  0  0  0  0
  5  6  1  0  0  0  0
  6  7  1  0  0  0  0
  7  8  1  0  0  0  0
  8  9  1  0  0  0  0
  8 10  1  0  0  0  0
  4 10  1  0  0  0  0
  6 11  1  0  0  0  0
 11 12  1  0  0  0  0
 12 13  2  0  0  0  0
 13 14  1  0  0  0  0
 14 15  2  0  0  0  0
 15 16  1  0  0  0  0
 11 16  2  0  0  0  0
 16 17  1  0  0  0  0
 17 18  2  0  0  0  0
 18 19  1  0  0  0  0
 15 19  1  0  0  0  0
 19 20  1  0  0  0  0
 20 21  1  0  0  0  0
 21 22  1  0  0  0  0
 22 23  1  0  0  0  0
 21 24  1  0  0  0  0
 24 25  1  0  0  0  0
 25 26  1  0  0  0  0
 26 27  1  0  0  0  0
 27 28  1  0  0  0  0
 21 28  1  0  0  0  0
M  END
>  <Catalog ID>
Z2760963320

>  <Plate_ID>
2026983-X50-01

>  <Well>
G07

>  <V, µL>
50

>  <Conc, mM>
10

>  <Formula>
C19H29N5O4

>  <MW>
391.4647

>  <Purity>
100

>  <PO>
5A-64168

>  <MW_salt>
0

>  <Stereochem.data>
Diastereomeric mixture

>  <Geometric.isomer>
Unequal mixture of geometric isomers

>  <Chemical name>
[4-({6-[2-(methoxymethyl)-6-methylmorpholin-4-yl]-9H-purin-9-yl}methyl)oxan-4-yl]methanol

>  <ClogP>
-0,446

>  <logS>
-2,087

>  <HBD>
1

>  <HBA>
8

>  <TPSA>
94,76

>  <RotBonds>
6

$$$$

  Mrv1925 04172511352D          

 26 30  0  0  0  0            999 V2000
   -5.0040    1.4211    0.0000 C   0  0  0  0  0  0  0  0  0  0  0  0
   -4.5840    2.1313    0.0000 C   0  0  0  0  0  0  0  0  0  0  0  0
   -4.9117    2.8884    0.0000 O   0  0  0  0  0  0  0  0  0  0  0  0
   -4.2928    3.4340    0.0000 C   0  0  0  0  0  0  0  0  0  0  0  0
   -3.5827    3.0140    0.0000 C   0  0  0  0  0  0  0  0  0  0  0  0
   -3.7627    2.2089    0.0000 C   0  0  0  0  0  0  0  0  0  0  0  0
   -2.9836    1.9376    0.0000 O   0  0  0  0  0  0  0  0  0  0  0  0
   -3.5911    1.4019    0.0000 C   0  0  0  0  0  0  0  0  0  0  0  0
   -2.8065    1.1470    0.0000 N   0  0  0  0  0  0  0  0  0  0  0  0
   -2.1391    1.6319    0.0000 C   0  0  0  0  0  0  0  0  0  0  0  0
   -1.4716    1.1470    0.0000 N   0  0  0  0  0  0  0  0  0  0  0  0
   -1.7266    0.3624    0.0000 C   0  0  0  0  0  0  0  0  0  0  0  0
   -1.3141   -0.3521    0.0000 C   0  0  0  0  0  0  0  0  0  0  0  0
   -1.7266   -1.0666    0.0000 N   0  0  0  0  0  0  0  0  0  0  0  0
   -2.5516   -1.0666    0.0000 C   0  0  0  0  0  0  0  0  0  0  0  0
   -2.9641   -0.3521    0.0000 N   0  0  0  0  0  0  0  0  0  0  0  0
   -2.5516    0.3624    0.0000 C   0  0  0  0  0  0  0  0  0  0  0  0
   -0.4891   -0.3521    0.0000 N   0  0  0  0  0  0  0  0  0  0  0  0
   -0.2828   -1.1771    0.0000 C   0  0  0  0  0  0  0  0  0  0  0  0
   -0.9973   -0.7646    0.0000 C   0  0  0  0  0  0  0  0  0  0  0  0
   -0.9973    0.0604    0.0000 C   0  0  0  0  0  0  0  0  0  0  0  0
   -0.2828    0.4729    0.0000 C   0  0  0  0  0  0  0  0  0  0  0  0
    0.4316    0.0604    0.0000 C   0  0  0  0  0  0  0  0  0  0  0  0
    1.1461    0.4729    0.0000 C   0  0  0  0  0  0  0  0  0  0  0  0
    1.1461    1.2979    0.0000 O   0  0  0  0  0  0  0  0  0  0  0  0
    0.4316   -0.7646    0.0000 C   0  0  0  0  0  0  0  0  0  0  0  0
  1  2  1  0  0  0  0
  2  3  1  0  0  0  0
  3  4  1  0  0  0  0
  4  5  1  0  0  0  0
  5  6  1  0  0  0  0
  2  6  1  0  0  0  0
  6  7  1  0  0  0  0
  6  8  1  0  0  0  0
  8  9  1  0  0  0  0
  9 10  1  0  0  0  0
 10 11  2  0  0  0  0
 11 12  1  0  0  0  0
 12 13  1  0  0  0  0
 13 14  2  0  0  0  0
 14 15  1  0  0  0  0
 15 16  2  0  0  0  0
 16 17  1  0  0  0  0
 12 17  2  0  0  0  0
  9 17  1  0  0  0  0
 13 18  1  0  0  0  0
 18 19  1  0  0  0  0
 19 20  1  0  0  0  0
 20 21  1  0  0  0  0
 21 22  1  0  0  0  0
 18 22  1  0  0  0  0
 22 23  1  0  0  0  0
 23 24  1  0  0  0  0
 24 25  1  0  0  0  0
 23 26  1  0  0  0  0
 19 26  1  0  0  0  0
M  END
>  <Catalog ID>
Z2760974081

>  <Plate_ID>
2026983-X50-01

>  <Well>
H07

>  <V, µL>
50

>  <Conc, mM>
10

>  <Formula>
C18H25N5O3

>  <MW>
359.4228

>  <Purity>
100

>  <PO>
5A-64168

>  <MW_salt>
0

>  <Stereochem.data>
Diastereomeric mixture

>  <Geometric.isomer>
None

>  <Chemical name>
3-({6-[2-(hydroxymethyl)-7-azabicyclo[2.2.1]heptan-7-yl]-9H-purin-9-yl}methyl)-2-methyloxolan-3-ol

>  <ClogP>
-0,404

>  <logS>
-2,768

>  <HBD>
2

>  <HBA>
7

>  <TPSA>
96,53

>  <RotBonds>
4

$$$$

  Mrv1925 04172511352D          

 24 25  0  0  0  0            999 V2000
    0.7145    1.2375    0.0000 C   0  0  0  0  0  0  0  0  0  0  0  0
    1.4289    0.8250    0.0000 C   0  0  0  0  0  0  0  0  0  0  0  0
    1.4289    0.0000    0.0000 N   0  0  0  0  0  0  0  0  0  0  0  0
    0.7145   -0.4125    0.0000 C   0  0  0  0  0  0  0  0  0  0  0  0
    0.7145   -1.2375    0.0000 C   0  0  0  0  0  0  0  0  0  0  0  0
    2.1434   -0.4125    0.0000 C   0  0  0  0  0  0  0  0  0  0  0  0
    2.8579    0.0000    0.0000 O   0  0  0  0  0  0  0  0  0  0  0  0
    2.1434   -1.2375    0.0000 N   0  0  0  0  0  0  0  0  0  0  0  0
    2.8579   -1.6500    0.0000 C   0  0  0  0  0  0  0  0  0  0  0  0
    2.8579   -2.4750    0.0000 C   0  0  0  0  0  0  0  0  0  0  0  0
    2.1434   -2.8875    0.0000 N   0  0  0  0  0  0  0  0  0  0  0  0
    2.1434   -3.7125    0.0000 C   0  0  0  0  0  0  0  0  0  0  0  0
    1.4289   -4.1250    0.0000 C   0  0  0  0  0  0  0  0  0  0  0  0
    1.4289   -4.9500    0.0000 C   0  0  0  0  0  0  0  0  0  0  0  0
    0.7145   -5.3625    0.0000 C   0  0  0  0  0  0  0  0  0  0  0  0
    0.7145   -6.1875    0.0000 O   0  0  0  0  0  0  0  0  0  0  0  0
   -0.0000   -4.9500    0.0000 N   0  0  0  0  0  0  0  0  0  0  0  0
   -0.7145   -5.3625    0.0000 C   0  0  0  0  0  0  0  0  0  0  0  0
    0.0000   -4.1250    0.0000 C   0  0  0  0  0  0  0  0  0  0  0  0
   -0.7145   -3.7125    0.0000 O   0  0  0  0  0  0  0  0  0  0  0  0
    0.7145   -3.7125    0.0000 N   0  0  0  0  0  0  0  0  0  0  0  0
    0.7145   -2.8875    0.0000 C   0  0  0  0  0  0  0  0  0  0  0  0
    1.4289   -2.4750    0.0000 C   0  0  0  0  0  0  0  0  0  0  0  0
    1.4289   -1.6500    0.0000 C   0  0  0  0  0  0  0  0  0  0  0  0
  1  2  1  0  0  0  0
  2  3  1  0  0  0  0
  3  4  1  0  0  0  0
  4  5  1  0  0  0  0
  3  6  1  0  0  0  0
  6  7  2  0  0  0  0
  6  8  1  0  0  0  0
  8  9  1  0  0  0  0
  9 10  1  0  0  0  0
 10 11  1  0  0  0  0
 11 12  1  0  0  0  0
 12 13  1  0  0  0  0
 13 14  2  0  0  0  0
 14 15  1  0  0  0  0
 15 16  2  0  0  0  0
 15 17  1  0  0  0  0
 17 18  1  0  0  0  0
 17 19  1  0  0  0  0
 19 20  2  0  0  0  0
 19 21  1  0  0  0  0
 13 21  1  0  0  0  0
 21 22  1  0  0  0  0
 11 23  1  0  0  0  0
 23 24  1  0  0  0  0
  8 24  1  0  0  0  0
M  END
>  <Catalog ID>
Z382731684

>  <Plate_ID>
2026983-X50-01

>  <Well>
A08

>  <V, µL>
50

>  <Conc, mM>
10

>  <Formula>
C16H27N5O3

>  <MW>
337.4173

>  <Purity>
100

>  <PO>
5A-64168

>  <MW_salt>
0

>  <Stereochem.data>
Achiral

>  <Geometric.isomer>
None

>  <Chemical name>
4-[(1,3-dimethyl-2,6-dioxo-1,2,3,6-tetrahydropyrimidin-4-yl)methyl]-N,N-diethylpiperazine-1-carboxamide

>  <ClogP>
0,771

>  <logS>
-0,732

>  <HBD>
0

>  <HBA>
4

>  <TPSA>
67,41

>  <RotBonds>
4

$$$$

  Mrv1925 04172511352D          

 32 35  0  0  0  0            999 V2000
    0.6710   -5.1170    0.0000 C   0  0  0  0  0  0  0  0  0  0  0  0
    0.1190   -4.5039    0.0000 C   0  0  0  0  0  0  0  0  0  0  0  0
   -0.6880   -4.6754    0.0000 C   0  0  0  0  0  0  0  0  0  0  0  0
   -1.2400   -4.0623    0.0000 N   0  0  0  0  0  0  0  0  0  0  0  0
   -0.9851   -3.2777    0.0000 C   0  0  0  0  0  0  0  0  0  0  0  0
   -1.5371   -2.6646    0.0000 O   0  0  0  0  0  0  0  0  0  0  0  0
   -0.1781   -3.1062    0.0000 N   0  0  0  0  0  0  0  0  0  0  0  0
    0.0768   -2.3215    0.0000 C   0  0  0  0  0  0  0  0  0  0  0  0
    0.8838   -2.1500    0.0000 C   0  0  0  0  0  0  0  0  0  0  0  0
    1.4358   -2.7631    0.0000 O   0  0  0  0  0  0  0  0  0  0  0  0
    1.1387   -1.3654    0.0000 N   0  0  0  0  0  0  0  0  0  0  0  0
    0.6538   -0.6979    0.0000 C   0  0  0  0  0  0  0  0  0  0  0  0
    1.1387   -0.0305    0.0000 C   0  0  0  0  0  0  0  0  0  0  0  0
    1.9233   -0.2854    0.0000 C   0  0  0  0  0  0  0  0  0  0  0  0
    2.6378    0.1271    0.0000 C   0  0  0  0  0  0  0  0  0  0  0  0
    3.3523   -0.2854    0.0000 C   0  0  0  0  0  0  0  0  0  0  0  0
    3.3523   -1.1104    0.0000 C   0  0  0  0  0  0  0  0  0  0  0  0
    2.6378   -1.5229    0.0000 C   0  0  0  0  0  0  0  0  0  0  0  0
    1.9233   -1.1104    0.0000 C   0  0  0  0  0  0  0  0  0  0  0  0
    4.0668    0.1271    0.0000 N   0  3  0  0  0  0  0  0  0  0  0  0
    4.7812   -0.2854    0.0000 O   0  5  0  0  0  0  0  0  0  0  0  0
    4.0668    0.9521    0.0000 O   0  0  0  0  0  0  0  0  0  0  0  0
    0.3739   -3.7192    0.0000 C   0  0  0  0  0  0  0  0  0  0  0  0
    1.1809   -3.5477    0.0000 O   0  0  0  0  0  0  0  0  0  0  0  0
   -2.0470   -4.2338    0.0000 C   0  0  0  0  0  0  0  0  0  0  0  0
   -2.3826   -4.9875    0.0000 C   0  0  0  0  0  0  0  0  0  0  0  0
   -3.2030   -4.9013    0.0000 C   0  0  0  0  0  0  0  0  0  0  0  0
   -3.7551   -5.5144    0.0000 O   0  0  0  0  0  0  0  0  0  0  0  0
   -3.3746   -4.0943    0.0000 C   0  0  0  0  0  0  0  0  0  0  0  0
   -4.1283   -3.7587    0.0000 C   0  0  0  0  0  0  0  0  0  0  0  0
   -4.7957   -4.2437    0.0000 O   0  0  0  0  0  0  0  0  0  0  0  0
   -2.6601   -3.6818    0.0000 O   0  0  0  0  0  0  0  0  0  0  0  0
  1  2  1  0  0  0  0
  2  3  2  0  0  0  0
  3  4  1  0  0  0  0
  4  5  1  0  0  0  0
  5  6  2  0  0  0  0
  5  7  1  0  0  0  0
  7  8  1  0  0  0  0
  8  9  1  0  0  0  0
  9 10  2  0  0  0  0
  9 11  1  0  0  0  0
 11 12  1  0  0  0  0
 12 13  1  0  0  0  0
 13 14  1  0  0  0  0
 14 15  1  0  0  0  0
 15 16  2  0  0  0  0
 16 17  1  0  0  0  0
 17 18  2  0  0  0  0
 18 19  1  0  0  0  0
 14 19  2  0  0  0  0
 11 19  1  0  0  0  0
 16 20  1  0  0  0  0
 20 21  1  0  0  0  0
 20 22  2  0  0  0  0
  7 23  1  0  0  0  0
  2 23  1  0  0  0  0
 23 24  2  0  0  0  0
  4 25  1  0  0  0  0
 25 26  1  0  0  0  0
 26 27  1  0  0  0  0
 27 28  1  0  0  0  0
 27 29  1  0  0  0  0
 29 30  1  0  0  0  0
 30 31  1  0  0  0  0
 29 32  1  0  0  0  0
 25 32  1  0  0  0  0
M  CHG  2  20   1  21  -1
M  END
>  <Catalog ID>
Z1544608062

>  <Plate_ID>
2026983-X50-01

>  <Well>
B08

>  <V, µL>
50

>  <Conc, mM>
10

>  <Formula>
C20H22N4O8

>  <MW>
446.4107

>  <Purity>
97.19

>  <PO>
5A-64168

>  <MW_salt>
0

>  <Stereochem.data>
Diastereomeric mixture

>  <Geometric.isomer>
None

>  <Chemical name>
1-[4-hydroxy-5-(hydroxymethyl)oxolan-2-yl]-5-methyl-3-[2-(5-nitro-2,3-dihydro-1H-indol-1-yl)-2-oxoethyl]-1,2,3,4-tetrahydropyrimidine-2,4-dione

>  <ClogP>
0,929

>  <logS>
-3,2

>  <HBD>
2

>  <HBA>
8

>  <TPSA>
153,76

>  <RotBonds>
5

$$$$

  Mrv1925 04172511352D          

 30 33  0  0  0  0            999 V2000
   -2.7512   -2.5366    0.0000 O   0  0  0  0  0  0  0  0  0  0  0  0
   -2.7512   -1.7116    0.0000 C   0  0  0  0  0  0  0  0  0  0  0  0
   -2.0367   -1.2991    0.0000 C   0  0  0  0  0  0  0  0  0  0  0  0
   -1.3222   -1.7116    0.0000 N   0  0  0  0  0  0  0  0  0  0  0  0
   -0.6078   -1.2991    0.0000 C   0  0  0  0  0  0  0  0  0  0  0  0
   -0.6078   -0.4741    0.0000 O   0  0  0  0  0  0  0  0  0  0  0  0
    0.1067   -1.7116    0.0000 C   0  0  0  0  0  0  0  0  0  0  0  0
    0.8212   -1.2991    0.0000 F   0  0  0  0  0  0  0  0  0  0  0  0
    0.1067   -2.5366    0.0000 C   0  0  0  0  0  0  0  0  0  0  0  0
   -0.6078   -2.9491    0.0000 N   0  0  0  0  0  0  0  0  0  0  0  0
   -1.3222   -2.5366    0.0000 C   0  0  0  0  0  0  0  0  0  0  0  0
   -2.0367   -2.9491    0.0000 O   0  0  0  0  0  0  0  0  0  0  0  0
   -0.6078   -3.7741    0.0000 C   0  0  0  0  0  0  0  0  0  0  0  0
    0.0597   -4.2590    0.0000 C   0  0  0  0  0  0  0  0  0  0  0  0
   -0.1953   -5.0437    0.0000 C   0  0  0  0  0  0  0  0  0  0  0  0
   -1.0203   -5.0437    0.0000 C   0  0  0  0  0  0  0  0  0  0  0  0
   -1.2752   -4.2590    0.0000 O   0  0  0  0  0  0  0  0  0  0  0  0
   -3.4656   -1.2991    0.0000 N   0  0  0  0  0  0  0  0  0  0  0  0
   -4.1801   -1.7116    0.0000 C   0  0  0  0  0  0  0  0  0  0  0  0
   -4.8946   -1.2991    0.0000 C   0  0  0  0  0  0  0  0  0  0  0  0
   -4.8946   -0.4741    0.0000 N   0  0  0  0  0  0  0  0  0  0  0  0
   -4.1801   -0.0616    0.0000 C   0  0  0  0  0  0  0  0  0  0  0  0
   -3.4656   -0.4741    0.0000 C   0  0  0  0  0  0  0  0  0  0  0  0
   -5.6091   -0.0616    0.0000 C   0  0  0  0  0  0  0  0  0  0  0  0
   -6.3235   -0.4741    0.0000 O   0  0  0  0  0  0  0  0  0  0  0  0
   -5.6091    0.7634    0.0000 C   0  0  0  0  0  0  0  0  0  0  0  0
   -6.2765    1.2483    0.0000 C   0  0  0  0  0  0  0  0  0  0  0  0
   -6.0216    2.0329    0.0000 C   0  0  0  0  0  0  0  0  0  0  0  0
   -5.1966    2.0329    0.0000 C   0  0  0  0  0  0  0  0  0  0  0  0
   -4.9416    1.2483    0.0000 S   0  0  0  0  0  0  0  0  0  0  0  0
  1  2  2  0  0  0  0
  2  3  1  0  0  0  0
  3  4  1  0  0  0  0
  4  5  1  0  0  0  0
  5  6  2  0  0  0  0
  5  7  1  0  0  0  0
  7  8  1  0  0  0  0
  7  9  2  0  0  0  0
  9 10  1  0  0  0  0
 10 11  1  0  0  0  0
  4 11  1  0  0  0  0
 11 12  2  0  0  0  0
 10 13  1  0  0  0  0
 13 14  1  0  0  0  0
 14 15  1  0  0  0  0
 15 16  1  0  0  0  0
 16 17  1  0  0  0  0
 13 17  1  0  0  0  0
  2 18  1  0  0  0  0
 18 19  1  0  0  0  0
 19 20  1  0  0  0  0
 20 21  1  0  0  0  0
 21 22  1  0  0  0  0
 22 23  1  0  0  0  0
 18 23  1  0  0  0  0
 21 24  1  0  0  0  0
 24 25  2  0  0  0  0
 24 26  1  0  0  0  0
 26 27  2  0  0  0  0
 27 28  1  0  0  0  0
 28 29  2  0  0  0  0
 29 30  1  0  0  0  0
 26 30  1  0  0  0  0
M  END
>  <Catalog ID>
Z107297016

>  <Plate_ID>
2026983-X50-01

>  <Well>
C08

>  <V, µL>
50

>  <Conc, mM>
10

>  <Formula>
C19H21FN4O5S

>  <MW>
436.4572

>  <Purity>
96.33

>  <PO>
5A-64168

>  <MW_salt>
0

>  <Stereochem.data>
Racemic or presumed racemic or meso

>  <Geometric.isomer>
None

>  <Chemical name>
5-fluoro-3-{2-oxo-2-[4-(thiophene-2-carbonyl)piperazin-1-yl]ethyl}-1-(oxolan-2-yl)-1,2,3,4-tetrahydropyrimidine-2,4-dione

>  <ClogP>
1,683

>  <logS>
-3,18

>  <HBD>
0

>  <HBA>
5

>  <TPSA>
90,47

>  <RotBonds>
4

$$$$

  Mrv1925 04172511352D          

 24 25  0  0  0  0            999 V2000
    0.7145   -1.2375    0.0000 C   0  0  0  0  0  0  0  0  0  0  0  0
    0.0000   -1.6500    0.0000 C   0  0  0  0  0  0  0  0  0  0  0  0
    0.0000   -2.4750    0.0000 N   0  0  0  0  0  0  0  0  0  0  0  0
    0.7145   -2.8875    0.0000 C   0  0  0  0  0  0  0  0  0  0  0  0
    0.7145   -3.7125    0.0000 C   0  0  0  0  0  0  0  0  0  0  0  0
    1.4289   -4.1250    0.0000 C   0  0  0  0  0  0  0  0  0  0  0  0
    2.1434   -4.5375    0.0000 N   0  0  0  0  0  0  0  0  0  0  0  0
    0.0000   -4.1250    0.0000 C   0  0  0  0  0  0  0  0  0  0  0  0
    0.0000   -4.9500    0.0000 O   0  0  0  0  0  0  0  0  0  0  0  0
   -0.7145   -3.7125    0.0000 N   0  0  0  0  0  0  0  0  0  0  0  0
   -1.4289   -4.1250    0.0000 C   0  0  0  0  0  0  0  0  0  0  0  0
   -1.4289   -4.9500    0.0000 C   0  0  0  0  0  0  0  0  0  0  0  0
   -0.7145   -5.3625    0.0000 C   0  0  0  0  0  0  0  0  0  0  0  0
   -0.7145   -6.1875    0.0000 N   0  0  0  0  0  0  0  0  0  0  0  0
    0.0000   -6.6000    0.0000 C   0  0  0  0  0  0  0  0  0  0  0  0
   -0.0000   -7.4250    0.0000 C   0  0  0  0  0  0  0  0  0  0  0  0
   -0.7145   -7.8375    0.0000 N   0  0  0  0  0  0  0  0  0  0  0  0
   -1.4289   -7.4250    0.0000 C   0  0  0  0  0  0  0  0  0  0  0  0
   -1.4289   -6.6000    0.0000 C   0  0  0  0  0  0  0  0  0  0  0  0
   -0.7145   -8.6625    0.0000 C   0  0  0  0  0  0  0  0  0  0  0  0
   -0.0000   -9.0750    0.0000 C   0  0  0  0  0  0  0  0  0  0  0  0
   -1.4289   -9.0750    0.0000 C   0  0  0  0  0  0  0  0  0  0  0  0
   -0.7145   -2.8875    0.0000 C   0  0  0  0  0  0  0  0  0  0  0  0
   -1.4289   -2.4750    0.0000 O   0  0  0  0  0  0  0  0  0  0  0  0
  1  2  1  0  0  0  0
  2  3  1  0  0  0  0
  3  4  1  0  0  0  0
  4  5  2  0  0  0  0
  5  6  1  0  0  0  0
  6  7  3  0  0  0  0
  5  8  1  0  0  0  0
  8  9  2  0  0  0  0
  8 10  1  0  0  0  0
 10 11  1  0  0  0  0
 11 12  1  0  0  0  0
 12 13  1  0  0  0  0
 13 14  1  0  0  0  0
 14 15  1  0  0  0  0
 15 16  1  0  0  0  0
 16 17  1  0  0  0  0
 17 18  1  0  0  0  0
 18 19  1  0  0  0  0
 14 19  1  0  0  0  0
 17 20  1  0  0  0  0
 20 21  1  0  0  0  0
 20 22  1  0  0  0  0
 10 23  1  0  0  0  0
  3 23  1  0  0  0  0
 23 24  2  0  0  0  0
M  END
>  <Catalog ID>
Z1818986429

>  <Plate_ID>
2026983-X50-01

>  <Well>
D08

>  <V, µL>
50

>  <Conc, mM>
10

>  <Formula>
C17H27N5O2

>  <MW>
333.4286

>  <Purity>
100

>  <PO>
5A-64168

>  <MW_salt>
0

>  <Stereochem.data>
Achiral

>  <Geometric.isomer>
None

>  <Chemical name>
1-ethyl-2,4-dioxo-3-{3-[4-(propan-2-yl)piperazin-1-yl]propyl}-1,2,3,4-tetrahydropyrimidine-5-carbonitrile

>  <ClogP>
0,63

>  <logS>
-0,472

>  <HBD>
0

>  <HBA>
5

>  <TPSA>
70,89

>  <RotBonds>
6

$$$$

  Mrv1925 04172511352D          

 27 31  0  0  1  0            999 V2000
   -3.5241   -5.6201    0.0000 O   0  0  0  0  0  0  0  0  0  0  0  0
   -3.3526   -4.8132    0.0000 C   0  0  0  0  0  0  0  0  0  0  0  0
   -2.5680   -4.5582    0.0000 C   0  0  1  0  0  0  0  0  0  0  0  0
   -2.3131   -3.7736    0.0000 O   0  0  0  0  0  0  0  0  0  0  0  0
   -1.4881   -3.7736    0.0000 C   0  0  2  0  0  0  0  0  0  0  0  0
   -1.2331   -4.5582    0.0000 C   0  0  2  0  0  0  0  0  0  0  0  0
   -0.4485   -4.8132    0.0000 O   0  0  0  0  0  0  0  0  0  0  0  0
   -1.9006   -5.0431    0.0000 C   0  0  2  0  0  0  0  0  0  0  0  0
   -1.9006   -5.8681    0.0000 O   0  0  0  0  0  0  0  0  0  0  0  0
   -1.0031   -3.1062    0.0000 N   0  0  0  0  0  0  0  0  0  0  0  0
   -1.2581   -2.3215    0.0000 C   0  0  0  0  0  0  0  0  0  0  0  0
   -0.5906   -1.8366    0.0000 N   0  0  0  0  0  0  0  0  0  0  0  0
    0.0768   -2.3215    0.0000 C   0  0  0  0  0  0  0  0  0  0  0  0
    0.8838   -2.1500    0.0000 C   0  0  0  0  0  0  0  0  0  0  0  0
    1.4358   -2.7631    0.0000 N   0  0  0  0  0  0  0  0  0  0  0  0
    1.1809   -3.5477    0.0000 C   0  0  0  0  0  0  0  0  0  0  0  0
    0.3739   -3.7192    0.0000 N   0  0  0  0  0  0  0  0  0  0  0  0
   -0.1781   -3.1062    0.0000 C   0  0  0  0  0  0  0  0  0  0  0  0
    1.1387   -1.3654    0.0000 N   0  0  0  0  0  0  0  0  0  0  0  0
    0.6538   -0.6979    0.0000 C   0  0  0  0  0  0  0  0  0  0  0  0
    1.1387   -0.0305    0.0000 C   0  0  0  0  0  0  0  0  0  0  0  0
    1.9233   -0.2854    0.0000 C   0  0  0  0  0  0  0  0  0  0  0  0
    2.6378    0.1271    0.0000 C   0  0  0  0  0  0  0  0  0  0  0  0
    3.3523   -0.2854    0.0000 C   0  0  0  0  0  0  0  0  0  0  0  0
    3.3523   -1.1104    0.0000 C   0  0  0  0  0  0  0  0  0  0  0  0
    2.6378   -1.5229    0.0000 C   0  0  0  0  0  0  0  0  0  0  0  0
    1.9233   -1.1104    0.0000 C   0  0  0  0  0  0  0  0  0  0  0  0
  1  2  1  0  0  0  0
  3  2  1  1  0  0  0
  3  4  1  0  0  0  0
  5  4  1  0  0  0  0
  6  5  1  0  0  0  0
  6  7  1  6  0  0  0
  6  8  1  0  0  0  0
  8  3  1  0  0  0  0
  8  9  1  6  0  0  0
  5 10  1  1  0  0  0
 10 11  1  0  0  0  0
 11 12  2  0  0  0  0
 12 13  1  0  0  0  0
 13 14  1  0  0  0  0
 14 15  2  0  0  0  0
 15 16  1  0  0  0  0
 16 17  2  0  0  0  0
 17 18  1  0  0  0  0
 13 18  2  0  0  0  0
 10 18  1  0  0  0  0
 14 19  1  0  0  0  0
 19 20  1  0  0  0  0
 20 21  1  0  0  0  0
 21 22  1  0  0  0  0
 22 23  1  0  0  0  0
 23 24  2  0  0  0  0
 24 25  1  0  0  0  0
 25 26  2  0  0  0  0
 26 27  1  0  0  0  0
 22 27  2  0  0  0  0
 19 27  1  0  0  0  0
M  END
>  <Catalog ID>
Z1980898745

>  <Plate_ID>
2026983-X50-01

>  <Well>
E08

>  <V, µL>
50

>  <Conc, mM>
10

>  <Formula>
C18H19N5O4

>  <MW>
369.3746

>  <Purity>
100

>  <PO>
5A-64168

>  <MW_salt>
0

>  <Stereochem.data>
Single known enantiomer

>  <Geometric.isomer>
None

>  <Chemical name>
(2R,3R,4S,5R)-2-[6-(2,3-dihydro-1H-indol-1-yl)-9H-purin-9-yl]-5-(hydroxymethyl)oxolane-3,4-diol

>  <ClogP>
0,748

>  <logS>
-3,222

>  <HBD>
3

>  <HBA>
8

>  <TPSA>
116,76

>  <RotBonds>
3

$$$$

  Mrv1925 04172511352D          

 29 32  0  0  1  0            999 V2000
    3.2789    4.5375    0.0000 O   0  0  0  0  0  0  0  0  0  0  0  0
    3.2789    3.7125    0.0000 C   0  0  0  0  0  0  0  0  0  0  0  0
    3.9934    3.3000    0.0000 C   0  0  0  0  0  0  0  0  0  0  0  0
    3.9934    2.4750    0.0000 C   0  0  0  0  0  0  0  0  0  0  0  0
    3.2789    2.0625    0.0000 N   0  0  0  0  0  0  0  0  0  0  0  0
    3.2789    1.2375    0.0000 C   0  0  0  0  0  0  0  0  0  0  0  0
    3.9934    0.8250    0.0000 N   0  0  0  0  0  0  0  0  0  0  0  0
    3.9934    0.0000    0.0000 C   0  0  0  0  0  0  0  0  0  0  0  0
    3.2789   -0.4125    0.0000 N   0  0  0  0  0  0  0  0  0  0  0  0
    2.5645    0.0000    0.0000 C   0  0  0  0  0  0  0  0  0  0  0  0
    2.5645    0.8250    0.0000 C   0  0  0  0  0  0  0  0  0  0  0  0
    1.7798    1.0799    0.0000 N   0  0  0  0  0  0  0  0  0  0  0  0
    1.2949    0.4125    0.0000 C   0  0  0  0  0  0  0  0  0  0  0  0
    1.7798   -0.2549    0.0000 N   0  0  0  0  0  0  0  0  0  0  0  0
    1.5249   -1.0396    0.0000 C   0  0  2  0  0  0  0  0  0  0  0  0
    2.0098   -1.7070    0.0000 O   0  0  0  0  0  0  0  0  0  0  0  0
    1.5249   -2.3744    0.0000 C   0  0  2  0  0  0  0  0  0  0  0  0
    1.7798   -3.1591    0.0000 C   0  0  0  0  0  0  0  0  0  0  0  0
    1.2278   -3.7722    0.0000 O   0  0  0  0  0  0  0  0  0  0  0  0
    0.7403   -2.1195    0.0000 C   0  0  1  0  0  0  0  0  0  0  0  0
    0.0728   -2.6044    0.0000 O   0  0  0  0  0  0  0  0  0  0  0  0
    0.7403   -1.2945    0.0000 C   0  0  1  0  0  0  0  0  0  0  0  0
    0.0728   -0.8096    0.0000 O   0  0  0  0  0  0  0  0  0  0  0  0
    4.7079    2.0625    0.0000 C   0  0  0  0  0  0  0  0  0  0  0  0
    5.4223    2.4750    0.0000 C   0  0  0  0  0  0  0  0  0  0  0  0
    6.1368    2.0625    0.0000 C   0  0  0  0  0  0  0  0  0  0  0  0
    6.1368    1.2375    0.0000 C   0  0  0  0  0  0  0  0  0  0  0  0
    5.4223    0.8250    0.0000 C   0  0  0  0  0  0  0  0  0  0  0  0
    4.7079    1.2375    0.0000 C   0  0  0  0  0  0  0  0  0  0  0  0
  1  2  1  0  0  0  0
  2  3  1  0  0  0  0
  3  4  1  0  0  0  0
  4  5  1  0  0  0  0
  5  6  1  0  0  0  0
  6  7  1  0  0  0  0
  7  8  2  0  0  0  0
  8  9  1  0  0  0  0
  9 10  2  0  0  0  0
 10 11  1  0  0  0  0
  6 11  2  0  0  0  0
 11 12  1  0  0  0  0
 12 13  2  0  0  0  0
 13 14  1  0  0  0  0
 10 14  1  0  0  0  0
 15 14  1  6  0  0  0
 15 16  1  0  0  0  0
 17 16  1  0  0  0  0
 17 18  1  6  0  0  0
 18 19  1  0  0  0  0
 20 17  1  0  0  0  0
 20 21  1  1  0  0  0
 20 22  1  0  0  0  0
 22 15  1  0  0  0  0
 22 23  1  1  0  0  0
  4 24  1  0  0  0  0
 24 25  1  0  0  0  0
 25 26  1  0  0  0  0
 26 27  1  0  0  0  0
 27 28  1  0  0  0  0
 28 29  1  0  0  0  0
 24 29  1  0  0  0  0
M  END
>  <Catalog ID>
Z1980978363

>  <Plate_ID>
2026983-X50-01

>  <Well>
F08

>  <V, µL>
50

>  <Conc, mM>
10

>  <Formula>
C19H29N5O5

>  <MW>
407.4641

>  <Purity>
90.34

>  <PO>
5A-64168

>  <MW_salt>
0

>  <Stereochem.data>
Diastereomeric mixture

>  <Geometric.isomer>
None

>  <Chemical name>
(2R,3R,4S,5R)-2-{6-[(1-cyclohexyl-3-hydroxypropyl)amino]-9H-purin-9-yl}-5-(hydroxymethyl)oxolane-3,4-diol

>  <ClogP>
0,708

>  <logS>
-3,766

>  <HBD>
5

>  <HBA>
9

>  <TPSA>
145,78

>  <RotBonds>
7

$$$$

  Mrv1925 04172511352D          

 25 27  0  0  0  0            999 V2000
   -0.7145   -3.7125    0.0000 O   0  0  0  0  0  0  0  0  0  0  0  0
   -1.4289   -3.3000    0.0000 C   0  0  0  0  0  0  0  0  0  0  0  0
   -2.1434   -3.7125    0.0000 C   0  0  0  0  0  0  0  0  0  0  0  0
   -2.1434   -4.5375    0.0000 F   0  0  0  0  0  0  0  0  0  0  0  0
   -2.8579   -3.3000    0.0000 C   0  0  0  0  0  0  0  0  0  0  0  0
   -2.8579   -2.4750    0.0000 N   0  0  0  0  0  0  0  0  0  0  0  0
   -2.1434   -2.0625    0.0000 C   0  0  0  0  0  0  0  0  0  0  0  0
   -2.1434   -1.2375    0.0000 O   0  0  0  0  0  0  0  0  0  0  0  0
   -1.4289   -2.4750    0.0000 N   0  0  0  0  0  0  0  0  0  0  0  0
   -0.7145   -2.0625    0.0000 C   0  0  0  0  0  0  0  0  0  0  0  0
    0.0000   -2.4750    0.0000 C   0  0  0  0  0  0  0  0  0  0  0  0
    0.0000   -3.3000    0.0000 O   0  0  0  0  0  0  0  0  0  0  0  0
    0.7145   -2.0625    0.0000 C   0  0  0  0  0  0  0  0  0  0  0  0
    1.4289   -2.4750    0.0000 C   0  0  0  0  0  0  0  0  0  0  0  0
    2.1434   -2.0625    0.0000 C   0  0  0  0  0  0  0  0  0  0  0  0
    2.1434   -1.2375    0.0000 C   0  0  0  0  0  0  0  0  0  0  0  0
    2.8579   -0.8250    0.0000 C   0  0  0  0  0  0  0  0  0  0  0  0
    3.5724   -1.2375    0.0000 C   0  0  0  0  0  0  0  0  0  0  0  0
    3.5724   -2.0625    0.0000 C   0  0  0  0  0  0  0  0  0  0  0  0
    2.8579   -2.4750    0.0000 C   0  0  0  0  0  0  0  0  0  0  0  0
   -3.5724   -2.0625    0.0000 C   0  0  0  0  0  0  0  0  0  0  0  0
   -4.3260   -2.3981    0.0000 C   0  0  0  0  0  0  0  0  0  0  0  0
   -4.8781   -1.7850    0.0000 C   0  0  0  0  0  0  0  0  0  0  0  0
   -4.4656   -1.0705    0.0000 C   0  0  0  0  0  0  0  0  0  0  0  0
   -3.6586   -1.2420    0.0000 O   0  0  0  0  0  0  0  0  0  0  0  0
  1  2  2  0  0  0  0
  2  3  1  0  0  0  0
  3  4  1  0  0  0  0
  3  5  2  0  0  0  0
  5  6  1  0  0  0  0
  6  7  1  0  0  0  0
  7  8  2  0  0  0  0
  7  9  1  0  0  0  0
  2  9  1  0  0  0  0
  9 10  1  0  0  0  0
 10 11  1  0  0  0  0
 11 12  1  0  0  0  0
 11 13  1  0  0  0  0
 13 14  1  0  0  0  0
 14 15  1  0  0  0  0
 15 16  1  0  0  0  0
 16 17  2  0  0  0  0
 17 18  1  0  0  0  0
 18 19  2  0  0  0  0
 19 20  1  0  0  0  0
 15 20  2  0  0  0  0
  6 21  1  0  0  0  0
 21 22  1  0  0  0  0
 22 23  1  0  0  0  0
 23 24  1  0  0  0  0
 24 25  1  0  0  0  0
 21 25  1  0  0  0  0
M  END
>  <Catalog ID>
Z1672739450

>  <Plate_ID>
2026983-X50-01

>  <Well>
G08

>  <V, µL>
50

>  <Conc, mM>
10

>  <Formula>
C18H21FN2O4

>  <MW>
348.3687

>  <Purity>
100

>  <PO>
5A-64168

>  <MW_salt>
0

>  <Stereochem.data>
Diastereomeric mixture

>  <Geometric.isomer>
None

>  <Chemical name>
5-fluoro-3-(2-hydroxy-4-phenylbutyl)-1-(oxolan-2-yl)-1,2,3,4-tetrahydropyrimidine-2,4-dione

>  <ClogP>
2,529

>  <logS>
-2,415

>  <HBD>
1

>  <HBA>
4

>  <TPSA>
70,08

>  <RotBonds>
6

$$$$

  Mrv1925 04172511352D          

 22 23  0  0  0  0            999 V2000
    1.4289    0.8250    0.0000 C   0  0  0  0  0  0  0  0  0  0  0  0
    1.4289    0.0000    0.0000 N   0  0  0  0  0  0  0  0  0  0  0  0
    0.7145   -0.4125    0.0000 C   0  0  0  0  0  0  0  0  0  0  0  0
    2.1434   -0.4125    0.0000 C   0  0  0  0  0  0  0  0  0  0  0  0
    2.8579    0.0000    0.0000 O   0  0  0  0  0  0  0  0  0  0  0  0
    2.1434   -1.2375    0.0000 N   0  0  0  0  0  0  0  0  0  0  0  0
    2.8579   -1.6500    0.0000 C   0  0  0  0  0  0  0  0  0  0  0  0
    2.8579   -2.4750    0.0000 C   0  0  0  0  0  0  0  0  0  0  0  0
    2.1434   -2.8875    0.0000 N   0  0  0  0  0  0  0  0  0  0  0  0
    2.1434   -3.7125    0.0000 C   0  0  0  0  0  0  0  0  0  0  0  0
    1.4289   -4.1250    0.0000 C   0  0  0  0  0  0  0  0  0  0  0  0
    1.4289   -4.9500    0.0000 C   0  0  0  0  0  0  0  0  0  0  0  0
    0.7145   -5.3625    0.0000 C   0  0  0  0  0  0  0  0  0  0  0  0
    0.7145   -6.1875    0.0000 O   0  0  0  0  0  0  0  0  0  0  0  0
   -0.0000   -4.9500    0.0000 N   0  0  0  0  0  0  0  0  0  0  0  0
   -0.7145   -5.3625    0.0000 C   0  0  0  0  0  0  0  0  0  0  0  0
    0.0000   -4.1250    0.0000 C   0  0  0  0  0  0  0  0  0  0  0  0
   -0.7145   -3.7125    0.0000 O   0  0  0  0  0  0  0  0  0  0  0  0
    0.7145   -3.7125    0.0000 N   0  0  0  0  0  0  0  0  0  0  0  0
    0.7145   -2.8875    0.0000 C   0  0  0  0  0  0  0  0  0  0  0  0
    1.4289   -2.4750    0.0000 C   0  0  0  0  0  0  0  0  0  0  0  0
    1.4289   -1.6500    0.0000 C   0  0  0  0  0  0  0  0  0  0  0  0
  1  2  1  0  0  0  0
  2  3  1  0  0  0  0
  2  4  1  0  0  0  0
  4  5  2  0  0  0  0
  4  6  1  0  0  0  0
  6  7  1  0  0  0  0
  7  8  1  0  0  0  0
  8  9  1  0  0  0  0
  9 10  1  0  0  0  0
 10 11  1  0  0  0  0
 11 12  2  0  0  0  0
 12 13  1  0  0  0  0
 13 14  2  0  0  0  0
 13 15  1  0  0  0  0
 15 16  1  0  0  0  0
 15 17  1  0  0  0  0
 17 18  2  0  0  0  0
 17 19  1  0  0  0  0
 11 19  1  0  0  0  0
 19 20  1  0  0  0  0
  9 21  1  0  0  0  0
 21 22  1  0  0  0  0
  6 22  1  0  0  0  0
M  END
>  <Catalog ID>
Z382734618

>  <Plate_ID>
2026983-X50-01

>  <Well>
H08

>  <V, µL>
50

>  <Conc, mM>
10

>  <Formula>
C14H23N5O3

>  <MW>
309.3641

>  <Purity>
100

>  <PO>
5A-64168

>  <MW_salt>
0

>  <Stereochem.data>
Achiral

>  <Geometric.isomer>
None

>  <Chemical name>
4-[(1,3-dimethyl-2,6-dioxo-1,2,3,6-tetrahydropyrimidin-4-yl)methyl]-N,N-dimethylpiperazine-1-carboxamide

>  <ClogP>
-0,127

>  <logS>
-0,08

>  <HBD>
0

>  <HBA>
4

>  <TPSA>
67,41

>  <RotBonds>
2

$$$$

  Mrv1925 04172511352D          

 22 24  0  0  0  0            999 V2000
    1.0164    4.8395    0.0000 N   0  0  0  0  0  0  0  0  0  0  0  0
    0.3020    4.4270    0.0000 C   0  0  0  0  0  0  0  0  0  0  0  0
   -0.4125    4.0145    0.0000 C   0  0  0  0  0  0  0  0  0  0  0  0
   -0.4125    3.1895    0.0000 C   0  0  0  0  0  0  0  0  0  0  0  0
   -1.1270    2.7770    0.0000 N   0  0  0  0  0  0  0  0  0  0  0  0
   -1.8414    3.1895    0.0000 C   0  0  0  0  0  0  0  0  0  0  0  0
   -2.5559    2.7770    0.0000 O   0  0  0  0  0  0  0  0  0  0  0  0
   -1.8414    4.0145    0.0000 N   0  0  0  0  0  0  0  0  0  0  0  0
   -2.5559    4.4270    0.0000 C   0  0  0  0  0  0  0  0  0  0  0  0
   -2.5559    5.2520    0.0000 C   0  0  0  0  0  0  0  0  0  0  0  0
   -3.2704    5.6645    0.0000 C   0  0  0  0  0  0  0  0  0  0  0  0
   -3.2704    6.4895    0.0000 N   0  0  0  0  0  0  0  0  0  0  0  0
   -3.9378    6.9744    0.0000 C   0  0  0  0  0  0  0  0  0  0  0  0
   -3.6829    7.7590    0.0000 C   0  0  0  0  0  0  0  0  0  0  0  0
   -2.8579    7.7590    0.0000 C   0  0  0  0  0  0  0  0  0  0  0  0
   -2.6029    6.9744    0.0000 C   0  0  0  0  0  0  0  0  0  0  0  0
   -1.8183    6.7195    0.0000 O   0  0  0  0  0  0  0  0  0  0  0  0
   -1.1270    4.4270    0.0000 C   0  0  0  0  0  0  0  0  0  0  0  0
   -1.1270    5.2520    0.0000 O   0  0  0  0  0  0  0  0  0  0  0  0
   -1.1270    1.9520    0.0000 C   0  0  0  0  0  0  0  0  0  0  0  0
   -0.7145    1.2375    0.0000 C   0  0  0  0  0  0  0  0  0  0  0  0
   -1.5395    1.2375    0.0000 C   0  0  0  0  0  0  0  0  0  0  0  0
  1  2  3  0  0  0  0
  2  3  1  0  0  0  0
  3  4  2  0  0  0  0
  4  5  1  0  0  0  0
  5  6  1  0  0  0  0
  6  7  2  0  0  0  0
  6  8  1  0  0  0  0
  8  9  1  0  0  0  0
  9 10  1  0  0  0  0
 10 11  1  0  0  0  0
 11 12  1  0  0  0  0
 12 13  1  0  0  0  0
 13 14  1  0  0  0  0
 14 15  1  0  0  0  0
 15 16  1  0  0  0  0
 12 16  1  0  0  0  0
 16 17  2  0  0  0  0
  8 18  1  0  0  0  0
  3 18  1  0  0  0  0
 18 19  2  0  0  0  0
  5 20  1  0  0  0  0
 20 21  1  0  0  0  0
 21 22  1  0  0  0  0
 20 22  1  0  0  0  0
M  END
>  <Catalog ID>
Z821318386

>  <Plate_ID>
2026983-X50-01

>  <Well>
A09

>  <V, µL>
50

>  <Conc, mM>
10

>  <Formula>
C15H18N4O3

>  <MW>
302.3284

>  <Purity>
95.44

>  <PO>
5A-64168

>  <MW_salt>
0

>  <Stereochem.data>
Achiral

>  <Geometric.isomer>
None

>  <Chemical name>
1-cyclopropyl-2,4-dioxo-3-[3-(2-oxopyrrolidin-1-yl)propyl]-1,2,3,4-tetrahydropyrimidine-5-carbonitrile

>  <ClogP>
0,278

>  <logS>
-1,32

>  <HBD>
0

>  <HBA>
4

>  <TPSA>
84,72

>  <RotBonds>
5

$$$$

  Mrv1925 04172511352D          

 29 32  0  0  0  0            999 V2000
   -1.4289   -2.4750    0.0000 C   0  0  0  0  0  0  0  0  0  0  0  0
   -0.7145   -2.8875    0.0000 C   0  0  0  0  0  0  0  0  0  0  0  0
   -0.7145   -3.7125    0.0000 C   0  0  0  0  0  0  0  0  0  0  0  0
    0.0000   -4.1250    0.0000 N   0  0  0  0  0  0  0  0  0  0  0  0
    0.7145   -3.7125    0.0000 C   0  0  0  0  0  0  0  0  0  0  0  0
    1.4289   -4.1250    0.0000 O   0  0  0  0  0  0  0  0  0  0  0  0
    0.7145   -2.8875    0.0000 N   0  0  0  0  0  0  0  0  0  0  0  0
    1.4289   -2.4750    0.0000 C   0  0  0  0  0  0  0  0  0  0  0  0
    1.4289   -1.6500    0.0000 C   0  0  0  0  0  0  0  0  0  0  0  0
    0.7145   -1.2375    0.0000 C   0  0  0  0  0  0  0  0  0  0  0  0
    0.7145   -0.4125    0.0000 C   0  0  0  0  0  0  0  0  0  0  0  0
    0.0000    0.0000    0.0000 C   0  0  0  0  0  0  0  0  0  0  0  0
    1.4289    0.0000    0.0000 N   0  0  0  0  0  0  0  0  0  0  0  0
    2.1434   -0.4125    0.0000 C   0  0  0  0  0  0  0  0  0  0  0  0
    2.8579    0.0000    0.0000 C   0  0  0  0  0  0  0  0  0  0  0  0
    3.5724   -0.4125    0.0000 C   0  0  0  0  0  0  0  0  0  0  0  0
    3.5724   -1.2375    0.0000 C   0  0  0  0  0  0  0  0  0  0  0  0
    2.8579   -1.6500    0.0000 C   0  0  0  0  0  0  0  0  0  0  0  0
    2.1434   -1.2375    0.0000 C   0  0  0  0  0  0  0  0  0  0  0  0
    0.0000   -2.4750    0.0000 C   0  0  0  0  0  0  0  0  0  0  0  0
    0.0000   -1.6500    0.0000 O   0  0  0  0  0  0  0  0  0  0  0  0
    0.0000   -4.9500    0.0000 C   0  0  0  0  0  0  0  0  0  0  0  0
    0.6674   -5.4349    0.0000 C   0  0  0  0  0  0  0  0  0  0  0  0
    0.4125   -6.2195    0.0000 C   0  0  0  0  0  0  0  0  0  0  0  0
    0.8974   -6.8870    0.0000 O   0  0  0  0  0  0  0  0  0  0  0  0
   -0.4125   -6.2195    0.0000 C   0  0  0  0  0  0  0  0  0  0  0  0
   -0.8974   -6.8870    0.0000 C   0  0  0  0  0  0  0  0  0  0  0  0
   -0.5619   -7.6407    0.0000 O   0  0  0  0  0  0  0  0  0  0  0  0
   -0.6674   -5.4349    0.0000 O   0  0  0  0  0  0  0  0  0  0  0  0
  1  2  1  0  0  0  0
  2  3  2  0  0  0  0
  3  4  1  0  0  0  0
  4  5  1  0  0  0  0
  5  6  2  0  0  0  0
  5  7  1  0  0  0  0
  7  8  1  0  0  0  0
  8  9  1  0  0  0  0
  9 10  2  0  0  0  0
 10 11  1  0  0  0  0
 11 12  1  0  0  0  0
 11 13  2  0  0  0  0
 13 14  1  0  0  0  0
 14 15  2  0  0  0  0
 15 16  1  0  0  0  0
 16 17  2  0  0  0  0
 17 18  1  0  0  0  0
 18 19  2  0  0  0  0
  9 19  1  0  0  0  0
 14 19  1  0  0  0  0
  7 20  1  0  0  0  0
  2 20  1  0  0  0  0
 20 21  2  0  0  0  0
  4 22  1  0  0  0  0
 22 23  1  0  0  0  0
 23 24  1  0  0  0  0
 24 25  1  0  0  0  0
 24 26  1  0  0  0  0
 26 27  1  0  0  0  0
 27 28  1  0  0  0  0
 26 29  1  0  0  0  0
 22 29  1  0  0  0  0
M  END
>  <Catalog ID>
Z1544608199

>  <Plate_ID>
2026983-X50-01

>  <Well>
B09

>  <V, µL>
50

>  <Conc, mM>
10

>  <Formula>
C21H23N3O5

>  <MW>
397.4244

>  <Purity>
95.29

>  <PO>
5A-64168

>  <MW_salt>
0

>  <Stereochem.data>
Diastereomeric mixture

>  <Geometric.isomer>
None

>  <Chemical name>
1-[4-hydroxy-5-(hydroxymethyl)oxolan-2-yl]-5-methyl-3-[(2-methylquinolin-4-yl)methyl]-1,2,3,4-tetrahydropyrimidine-2,4-dione

>  <ClogP>
1,432

>  <logS>
-2,78

>  <HBD>
2

>  <HBA>
6

>  <TPSA>
103,2

>  <RotBonds>
4

$$$$

  Mrv1925 04172511352D          

 20 21  0  0  0  0            999 V2000
    2.1434   -0.4125    0.0000 C   0  0  0  0  0  0  0  0  0  0  0  0
    2.1434   -1.2375    0.0000 N   0  0  0  0  0  0  0  0  0  0  0  0
    2.8579   -1.6500    0.0000 C   0  0  0  0  0  0  0  0  0  0  0  0
    3.5724   -1.2375    0.0000 O   0  0  0  0  0  0  0  0  0  0  0  0
    2.8579   -2.4750    0.0000 C   0  0  0  0  0  0  0  0  0  0  0  0
    2.1434   -2.8875    0.0000 C   0  0  0  0  0  0  0  0  0  0  0  0
    2.1434   -3.7125    0.0000 C   0  0  0  0  0  0  0  0  0  0  0  0
    1.4289   -4.1250    0.0000 N   0  0  0  0  0  0  0  0  0  0  0  0
    1.4289   -4.9500    0.0000 C   0  0  0  0  0  0  0  0  0  0  0  0
    0.7145   -5.3625    0.0000 C   0  0  0  0  0  0  0  0  0  0  0  0
   -0.0000   -4.9500    0.0000 N   0  0  0  0  0  0  0  0  0  0  0  0
   -0.7145   -5.3625    0.0000 C   0  0  0  0  0  0  0  0  0  0  0  0
   -1.4289   -4.9500    0.0000 C   0  0  0  0  0  0  0  0  0  0  0  0
   -2.1434   -5.3625    0.0000 O   0  0  0  0  0  0  0  0  0  0  0  0
    0.0000   -4.1250    0.0000 C   0  0  0  0  0  0  0  0  0  0  0  0
    0.7145   -3.7125    0.0000 C   0  0  0  0  0  0  0  0  0  0  0  0
    1.4289   -2.4750    0.0000 N   0  0  0  0  0  0  0  0  0  0  0  0
    0.7145   -2.8875    0.0000 C   0  0  0  0  0  0  0  0  0  0  0  0
    1.4289   -1.6500    0.0000 C   0  0  0  0  0  0  0  0  0  0  0  0
    0.7145   -1.2375    0.0000 O   0  0  0  0  0  0  0  0  0  0  0  0
  1  2  1  0  0  0  0
  2  3  1  0  0  0  0
  3  4  2  0  0  0  0
  3  5  1  0  0  0  0
  5  6  2  0  0  0  0
  6  7  1  0  0  0  0
  7  8  1  0  0  0  0
  8  9  1  0  0  0  0
  9 10  1  0  0  0  0
 10 11  1  0  0  0  0
 11 12  1  0  0  0  0
 12 13  1  0  0  0  0
 13 14  1  0  0  0  0
 11 15  1  0  0  0  0
 15 16  1  0  0  0  0
  8 16  1  0  0  0  0
  6 17  1  0  0  0  0
 17 18  1  0  0  0  0
 17 19  1  0  0  0  0
  2 19  1  0  0  0  0
 19 20  2  0  0  0  0
M  END
>  <Catalog ID>
Z212240750

>  <Plate_ID>
2026983-X50-01

>  <Well>
C09

>  <V, µL>
50

>  <Conc, mM>
10

>  <Formula>
C13H22N4O3

>  <MW>
282.3388

>  <Purity>
100

>  <PO>
5A-64168

>  <MW_salt>
0

>  <Stereochem.data>
Achiral

>  <Geometric.isomer>
None

>  <Chemical name>
6-{[4-(2-hydroxyethyl)piperazin-1-yl]methyl}-1,3-dimethyl-1,2,3,4-tetrahydropyrimidine-2,4-dione

>  <ClogP>
-0,891

>  <logS>
0,979

>  <HBD>
1

>  <HBA>
5

>  <TPSA>
67,33

>  <RotBonds>
4

$$$$

  Mrv1925 04172511352D          

 20 21  0  0  0  0            999 V2000
    1.4289    0.8250    0.0000 C   0  0  0  0  0  0  0  0  0  0  0  0
    1.4289    0.0000    0.0000 C   0  0  0  0  0  0  0  0  0  0  0  0
    2.1434   -0.4125    0.0000 C   0  0  0  0  0  0  0  0  0  0  0  0
    2.1434   -1.2375    0.0000 N   0  0  0  0  0  0  0  0  0  0  0  0
    2.8579   -1.6500    0.0000 C   0  0  0  0  0  0  0  0  0  0  0  0
    2.8579   -2.4750    0.0000 C   0  0  0  0  0  0  0  0  0  0  0  0
    2.1434   -2.8875    0.0000 N   0  0  0  0  0  0  0  0  0  0  0  0
    2.1434   -3.7125    0.0000 C   0  0  0  0  0  0  0  0  0  0  0  0
    1.4289   -4.1250    0.0000 C   0  0  0  0  0  0  0  0  0  0  0  0
    1.4289   -4.9500    0.0000 C   0  0  0  0  0  0  0  0  0  0  0  0
    0.7145   -5.3625    0.0000 C   0  0  0  0  0  0  0  0  0  0  0  0
    0.7145   -6.1875    0.0000 O   0  0  0  0  0  0  0  0  0  0  0  0
   -0.0000   -4.9500    0.0000 N   0  0  0  0  0  0  0  0  0  0  0  0
   -0.7145   -5.3625    0.0000 C   0  0  0  0  0  0  0  0  0  0  0  0
    0.0000   -4.1250    0.0000 C   0  0  0  0  0  0  0  0  0  0  0  0
   -0.7145   -3.7125    0.0000 O   0  0  0  0  0  0  0  0  0  0  0  0
    0.7145   -3.7125    0.0000 N   0  0  0  0  0  0  0  0  0  0  0  0
    0.7145   -2.8875    0.0000 C   0  0  0  0  0  0  0  0  0  0  0  0
    1.4289   -2.4750    0.0000 C   0  0  0  0  0  0  0  0  0  0  0  0
    1.4289   -1.6500    0.0000 C   0  0  0  0  0  0  0  0  0  0  0  0
  1  2  1  0  0  0  0
  2  3  1  0  0  0  0
  3  4  1  0  0  0  0
  4  5  1  0  0  0  0
  5  6  1  0  0  0  0
  6  7  1  0  0  0  0
  7  8  1  0  0  0  0
  8  9  1  0  0  0  0
  9 10  2  0  0  0  0
 10 11  1  0  0  0  0
 11 12  2  0  0  0  0
 11 13  1  0  0  0  0
 13 14  1  0  0  0  0
 13 15  1  0  0  0  0
 15 16  2  0  0  0  0
 15 17  1  0  0  0  0
  9 17  1  0  0  0  0
 17 18  1  0  0  0  0
  7 19  1  0  0  0  0
 19 20  1  0  0  0  0
  4 20  1  0  0  0  0
M  END
>  <Catalog ID>
Z212212618

>  <Plate_ID>
2026983-X50-01

>  <Well>
D09

>  <V, µL>
50

>  <Conc, mM>
10

>  <Formula>
C14H24N4O2

>  <MW>
280.366

>  <Purity>
100

>  <PO>
5A-64168

>  <MW_salt>
0

>  <Stereochem.data>
Achiral

>  <Geometric.isomer>
None

>  <Chemical name>
1,3-dimethyl-6-[(4-propylpiperazin-1-yl)methyl]-1,2,3,4-tetrahydropyrimidine-2,4-dione

>  <ClogP>
0,822

>  <logS>
0,21

>  <HBD>
0

>  <HBA>
4

>  <TPSA>
47,1

>  <RotBonds>
4

$$$$

  Mrv1925 04172511352D          

 23 24  0  0  0  0            999 V2000
    3.5724   -1.2375    0.0000 C   0  0  0  0  0  0  0  0  0  0  0  0
    2.8579   -1.6500    0.0000 C   0  0  0  0  0  0  0  0  0  0  0  0
    2.8579   -2.4750    0.0000 N   0  0  0  0  0  0  0  0  0  0  0  0
    3.5724   -2.8875    0.0000 C   0  0  0  0  0  0  0  0  0  0  0  0
    3.5724   -3.7125    0.0000 C   0  0  0  0  0  0  0  0  0  0  0  0
    4.2868   -4.1250    0.0000 C   0  0  0  0  0  0  0  0  0  0  0  0
    5.0013   -4.5375    0.0000 N   0  0  0  0  0  0  0  0  0  0  0  0
    2.8579   -4.1250    0.0000 C   0  0  0  0  0  0  0  0  0  0  0  0
    2.8579   -4.9500    0.0000 O   0  0  0  0  0  0  0  0  0  0  0  0
    2.1434   -3.7125    0.0000 N   0  0  0  0  0  0  0  0  0  0  0  0
    1.4289   -4.1250    0.0000 C   0  0  0  0  0  0  0  0  0  0  0  0
    0.7145   -3.7125    0.0000 C   0  0  0  0  0  0  0  0  0  0  0  0
    0.7145   -2.8875    0.0000 O   0  0  0  0  0  0  0  0  0  0  0  0
    0.0000   -4.1250    0.0000 C   0  0  0  0  0  0  0  0  0  0  0  0
   -0.7145   -3.7125    0.0000 N   0  0  0  0  0  0  0  0  0  0  0  0
   -1.4289   -4.1250    0.0000 C   0  0  0  0  0  0  0  0  0  0  0  0
   -2.1434   -3.7125    0.0000 C   0  0  0  0  0  0  0  0  0  0  0  0
   -2.1434   -2.8875    0.0000 C   0  0  0  0  0  0  0  0  0  0  0  0
   -2.8579   -2.4750    0.0000 C   0  0  0  0  0  0  0  0  0  0  0  0
   -1.4289   -2.4750    0.0000 C   0  0  0  0  0  0  0  0  0  0  0  0
   -0.7145   -2.8875    0.0000 C   0  0  0  0  0  0  0  0  0  0  0  0
    2.1434   -2.8875    0.0000 C   0  0  0  0  0  0  0  0  0  0  0  0
    1.4289   -2.4750    0.0000 O   0  0  0  0  0  0  0  0  0  0  0  0
  1  2  1  0  0  0  0
  2  3  1  0  0  0  0
  3  4  1  0  0  0  0
  4  5  2  0  0  0  0
  5  6  1  0  0  0  0
  6  7  3  0  0  0  0
  5  8  1  0  0  0  0
  8  9  2  0  0  0  0
  8 10  1  0  0  0  0
 10 11  1  0  0  0  0
 11 12  1  0  0  0  0
 12 13  1  0  0  0  0
 12 14  1  0  0  0  0
 14 15  1  0  0  0  0
 15 16  1  0  0  0  0
 16 17  1  0  0  0  0
 17 18  1  0  0  0  0
 18 19  1  0  0  0  0
 18 20  1  0  0  0  0
 20 21  1  0  0  0  0
 15 21  1  0  0  0  0
 10 22  1  0  0  0  0
  3 22  1  0  0  0  0
 22 23  2  0  0  0  0
M  END
>  <Catalog ID>
Z822176618

>  <Plate_ID>
2026983-X50-01

>  <Well>
E09

>  <V, µL>
50

>  <Conc, mM>
10

>  <Formula>
C16H24N4O3

>  <MW>
320.3868

>  <Purity>
100

>  <PO>
5A-64168

>  <MW_salt>
0

>  <Stereochem.data>
Racemic or presumed racemic or meso

>  <Geometric.isomer>
None

>  <Chemical name>
1-ethyl-3-[2-hydroxy-3-(4-methylpiperidin-1-yl)propyl]-2,4-dioxo-1,2,3,4-tetrahydropyrimidine-5-carbonitrile

>  <ClogP>
1,679

>  <logS>
-1,25

>  <HBD>
1

>  <HBA>
5

>  <TPSA>
87,88

>  <RotBonds>
5

$$$$

  Mrv1925 04172511352D          

 24 26  0  0  0  0            999 V2000
   -2.8579   -3.3000    0.0000 N   0  0  0  0  0  0  0  0  0  0  0  0
   -2.1434   -2.8875    0.0000 C   0  0  0  0  0  0  0  0  0  0  0  0
   -1.4289   -2.4750    0.0000 C   0  0  0  0  0  0  0  0  0  0  0  0
   -1.4289   -1.6500    0.0000 C   0  0  0  0  0  0  0  0  0  0  0  0
   -0.7145   -1.2375    0.0000 N   0  0  0  0  0  0  0  0  0  0  0  0
    0.0000   -1.6500    0.0000 C   0  0  0  0  0  0  0  0  0  0  0  0
    0.7145   -1.2375    0.0000 O   0  0  0  0  0  0  0  0  0  0  0  0
    0.0000   -2.4750    0.0000 N   0  0  0  0  0  0  0  0  0  0  0  0
    0.7145   -2.8875    0.0000 C   0  0  0  0  0  0  0  0  0  0  0  0
    1.4289   -2.4750    0.0000 C   0  0  0  0  0  0  0  0  0  0  0  0
    2.1434   -2.8875    0.0000 C   0  0  0  0  0  0  0  0  0  0  0  0
    2.1434   -3.7125    0.0000 O   0  0  0  0  0  0  0  0  0  0  0  0
    2.8579   -2.4750    0.0000 N   0  0  0  0  0  0  0  0  0  0  0  0
    3.5724   -2.8875    0.0000 C   0  0  0  0  0  0  0  0  0  0  0  0
    4.2868   -2.4750    0.0000 C   0  0  0  0  0  0  0  0  0  0  0  0
    5.0013   -2.8875    0.0000 C   0  0  0  0  0  0  0  0  0  0  0  0
    5.0013   -3.7125    0.0000 C   0  0  0  0  0  0  0  0  0  0  0  0
    4.2868   -4.1250    0.0000 C   0  0  0  0  0  0  0  0  0  0  0  0
    3.5724   -3.7125    0.0000 C   0  0  0  0  0  0  0  0  0  0  0  0
   -0.7145   -2.8875    0.0000 C   0  0  0  0  0  0  0  0  0  0  0  0
   -0.7145   -3.7125    0.0000 O   0  0  0  0  0  0  0  0  0  0  0  0
   -0.7145   -0.4125    0.0000 C   0  0  0  0  0  0  0  0  0  0  0  0
   -1.1270    0.3020    0.0000 C   0  0  0  0  0  0  0  0  0  0  0  0
   -0.3020    0.3020    0.0000 C   0  0  0  0  0  0  0  0  0  0  0  0
  1  2  3  0  0  0  0
  2  3  1  0  0  0  0
  3  4  2  0  0  0  0
  4  5  1  0  0  0  0
  5  6  1  0  0  0  0
  6  7  2  0  0  0  0
  6  8  1  0  0  0  0
  8  9  1  0  0  0  0
  9 10  1  0  0  0  0
 10 11  1  0  0  0  0
 11 12  2  0  0  0  0
 11 13  1  0  0  0  0
 13 14  1  0  0  0  0
 14 15  1  0  0  0  0
 15 16  2  0  0  0  0
 16 17  1  0  0  0  0
 17 18  2  0  0  0  0
 18 19  1  0  0  0  0
 14 19  2  0  0  0  0
  8 20  1  0  0  0  0
  3 20  1  0  0  0  0
 20 21  2  0  0  0  0
  5 22  1  0  0  0  0
 22 23  1  0  0  0  0
 23 24  1  0  0  0  0
 22 24  1  0  0  0  0
M  END
>  <Catalog ID>
Z995340470

>  <Plate_ID>
2026983-X50-01

>  <Well>
F09

>  <V, µL>
50

>  <Conc, mM>
10

>  <Formula>
C17H16N4O3

>  <MW>
324.3339

>  <Purity>
100

>  <PO>
5A-64168

>  <MW_salt>
0

>  <Stereochem.data>
Achiral

>  <Geometric.isomer>
None

>  <Chemical name>
3-(5-cyano-3-cyclopropyl-2,6-dioxo-1,2,3,6-tetrahydropyrimidin-1-yl)-N-phenylpropanamide

>  <ClogP>
1,76

>  <logS>
-2,67

>  <HBD>
1

>  <HBA>
4

>  <TPSA>
93,51

>  <RotBonds>
5

$$$$

  Mrv1925 04172511352D          

 16 16  0  0  0  0            999 V2000
    1.4289    2.4750    0.0000 C   0  0  0  0  0  0  0  0  0  0  0  0
    0.7145    2.0625    0.0000 C   0  0  0  0  0  0  0  0  0  0  0  0
    0.7145    1.2375    0.0000 N   0  0  0  0  0  0  0  0  0  0  0  0
    1.4289    0.8250    0.0000 C   0  0  0  0  0  0  0  0  0  0  0  0
    1.4289   -0.0000    0.0000 C   0  0  0  0  0  0  0  0  0  0  0  0
    2.1434   -0.4125    0.0000 C   0  0  0  0  0  0  0  0  0  0  0  0
    2.8579   -0.8250    0.0000 N   0  0  0  0  0  0  0  0  0  0  0  0
    0.7145   -0.4125    0.0000 C   0  0  0  0  0  0  0  0  0  0  0  0
    0.7145   -1.2375    0.0000 O   0  0  0  0  0  0  0  0  0  0  0  0
    0.0000    0.0000    0.0000 N   0  0  0  0  0  0  0  0  0  0  0  0
   -0.7145   -0.4125    0.0000 C   0  0  0  0  0  0  0  0  0  0  0  0
   -1.4289    0.0000    0.0000 C   0  0  0  0  0  0  0  0  0  0  0  0
   -2.1434   -0.4125    0.0000 F   0  0  0  0  0  0  0  0  0  0  0  0
   -1.4289    0.8250    0.0000 F   0  0  0  0  0  0  0  0  0  0  0  0
    0.0000    0.8250    0.0000 C   0  0  0  0  0  0  0  0  0  0  0  0
   -0.7145    1.2375    0.0000 O   0  0  0  0  0  0  0  0  0  0  0  0
  1  2  1  0  0  0  0
  2  3  1  0  0  0  0
  3  4  1  0  0  0  0
  4  5  2  0  0  0  0
  5  6  1  0  0  0  0
  6  7  3  0  0  0  0
  5  8  1  0  0  0  0
  8  9  2  0  0  0  0
  8 10  1  0  0  0  0
 10 11  1  0  0  0  0
 11 12  1  0  0  0  0
 12 13  1  0  0  0  0
 12 14  1  0  0  0  0
 10 15  1  0  0  0  0
  3 15  1  0  0  0  0
 15 16  2  0  0  0  0
M  END
>  <Catalog ID>
Z1190346088

>  <Plate_ID>
2026983-X50-01

>  <Well>
G09

>  <V, µL>
50

>  <Conc, mM>
10

>  <Formula>
C9H9F2N3O2

>  <MW>
229.1835

>  <Purity>
95

>  <PO>
5A-64168

>  <MW_salt>
0

>  <Stereochem.data>
Achiral

>  <Geometric.isomer>
None

>  <Chemical name>
3-(2,2-difluoroethyl)-1-ethyl-2,4-dioxo-1,2,3,4-tetrahydropyrimidine-5-carbonitrile

>  <ClogP>
0,773

>  <logS>
-1,479

>  <HBD>
0

>  <HBA>
3

>  <TPSA>
64,41

>  <RotBonds>
3

$$$$

  Mrv1925 04172511352D          

 17 17  0  0  0  0            999 V2000
    0.0000    0.0000    0.0000 Cl  0  0  0  0  0  0  0  0  0  0  0  0
    5.4739    2.6287    0.0000 N   0  0  0  0  0  0  0  0  0  0  0  0
    5.4739    1.8037    0.0000 C   0  0  0  0  0  0  0  0  0  0  0  0
    6.1883    1.3912    0.0000 C   0  0  0  0  0  0  0  0  0  0  0  0
    6.1883    0.5662    0.0000 C   0  0  0  0  0  0  0  0  0  0  0  0
    5.4739    0.1537    0.0000 C   0  0  0  0  0  0  0  0  0  0  0  0
    4.7594    0.5662    0.0000 C   0  0  0  0  0  0  0  0  0  0  0  0
    4.7594    1.3912    0.0000 N   0  0  0  0  0  0  0  0  0  0  0  0
    4.0449    0.1537    0.0000 C   0  0  0  0  0  0  0  0  0  0  0  0
    3.3304    0.5662    0.0000 O   0  0  0  0  0  0  0  0  0  0  0  0
    4.0449   -0.6713    0.0000 N   0  0  0  0  0  0  0  0  0  0  0  0
    4.7124   -1.1563    0.0000 C   0  0  0  0  0  0  0  0  0  0  0  0
    4.4574   -1.9409    0.0000 C   0  0  0  0  0  0  0  0  0  0  0  0
    3.6324   -1.9409    0.0000 C   0  0  0  0  0  0  0  0  0  0  0  0
    3.3775   -1.1563    0.0000 C   0  0  0  0  0  0  0  0  0  0  0  0
    2.5929   -0.9013    0.0000 C   0  0  0  0  0  0  0  0  0  0  0  0
    1.9798   -1.4534    0.0000 O   0  0  0  0  0  0  0  0  0  0  0  0
  2  3  1  0  0  0  0
  3  4  1  0  0  0  0
  4  5  2  0  0  0  0
  5  6  1  0  0  0  0
  6  7  2  0  0  0  0
  7  8  1  0  0  0  0
  3  8  2  0  0  0  0
  7  9  1  0  0  0  0
  9 10  2  0  0  0  0
  9 11  1  0  0  0  0
 11 12  1  0  0  0  0
 12 13  1  0  0  0  0
 13 14  1  0  0  0  0
 14 15  1  0  0  0  0
 11 15  1  0  0  0  0
 15 16  1  0  0  0  0
 16 17  1  0  0  0  0
M  END
>  <Catalog ID>
Z1263820433

>  <Plate_ID>
2026983-X50-01

>  <Well>
H09

>  <V, µL>
50

>  <Conc, mM>
10

>  <Formula>
C11H16ClN3O2

>  <MW>
257.7166

>  <Purity>
100

>  <PO>
5A-64168

>  <Salt smiles>
Cl

>  <Salt_name>
Hydrochloric Acid

>  <Salt_ratio>
1

>  <MW_salt>
36.4609

>  <Stereochem.data>
Racemic or presumed racemic or meso

>  <Geometric.isomer>
None

>  <Chemical name>
[1-(6-aminopyridine-2-carbonyl)pyrrolidin-2-yl]methanol hydrochloride

>  <ClogP>
-0,558

>  <logS>
-2,34

>  <HBD>
2

>  <HBA>
4

>  <TPSA>
79,45

>  <RotBonds>
2

$$$$

  Mrv1925 04172511352D          

 17 18  0  0  0  0            999 V2000
    0.1067    4.7652    0.0000 C   0  0  0  0  0  0  0  0  0  0  0  0
   -0.6078    4.3527    0.0000 C   0  0  0  0  0  0  0  0  0  0  0  0
   -0.6078    3.5277    0.0000 C   0  0  0  0  0  0  0  0  0  0  0  0
   -1.3222    3.1152    0.0000 N   0  0  0  0  0  0  0  0  0  0  0  0
   -2.0367    3.5277    0.0000 C   0  0  0  0  0  0  0  0  0  0  0  0
   -2.7512    3.1152    0.0000 O   0  0  0  0  0  0  0  0  0  0  0  0
   -2.0367    4.3527    0.0000 N   0  0  0  0  0  0  0  0  0  0  0  0
   -1.3222    4.7652    0.0000 C   0  0  0  0  0  0  0  0  0  0  0  0
   -1.3222    5.5902    0.0000 O   0  0  0  0  0  0  0  0  0  0  0  0
   -1.3222    2.2902    0.0000 C   0  0  0  0  0  0  0  0  0  0  0  0
   -0.6548    1.8053    0.0000 C   0  0  0  0  0  0  0  0  0  0  0  0
   -0.9097    1.0206    0.0000 C   0  0  0  0  0  0  0  0  0  0  0  0
   -0.4248    0.3532    0.0000 O   0  0  0  0  0  0  0  0  0  0  0  0
   -1.7347    1.0206    0.0000 C   0  0  0  0  0  0  0  0  0  0  0  0
   -2.2197    0.3532    0.0000 C   0  0  0  0  0  0  0  0  0  0  0  0
   -1.8841   -0.4005    0.0000 O   0  0  0  0  0  0  0  0  0  0  0  0
   -1.9897    1.8053    0.0000 O   0  0  0  0  0  0  0  0  0  0  0  0
  1  2  1  0  0  0  0
  2  3  2  0  0  0  0
  3  4  1  0  0  0  0
  4  5  1  0  0  0  0
  5  6  2  0  0  0  0
  5  7  1  0  0  0  0
  7  8  1  0  0  0  0
  2  8  1  0  0  0  0
  8  9  2  0  0  0  0
  4 10  1  0  0  0  0
 10 11  1  0  0  0  0
 11 12  1  0  0  0  0
 12 13  1  0  0  0  0
 12 14  1  0  0  0  0
 14 15  1  0  0  0  0
 15 16  1  0  0  0  0
 14 17  1  0  0  0  0
 10 17  1  0  0  0  0
M  END
>  <Catalog ID>
Z1162463429

>  <Plate_ID>
2026983-X50-01

>  <Well>
A10

>  <V, µL>
50

>  <Conc, mM>
10

>  <Formula>
C10H14N2O5

>  <MW>
242.2286

>  <Purity>
100

>  <PO>
5A-64168

>  <MW_salt>
0

>  <Stereochem.data>
Diastereomeric mixture

>  <Geometric.isomer>
None

>  <Chemical name>
1-[4-hydroxy-5-(hydroxymethyl)oxolan-2-yl]-5-methyl-1,2,3,4-tetrahydropyrimidine-2,4-dione

>  <ClogP>
-1,385

>  <logS>
-0,883

>  <HBD>
3

>  <HBA>
5

>  <TPSA>
99,1

>  <RotBonds>
2

$$$$

  Mrv1925 04172511352D          

 19 21  0  0  1  0            999 V2000
    3.2789    2.0625    0.0000 N   0  0  0  0  0  0  0  0  0  0  0  0
    3.2789    1.2375    0.0000 C   0  0  0  0  0  0  0  0  0  0  0  0
    3.9934    0.8250    0.0000 N   0  0  0  0  0  0  0  0  0  0  0  0
    3.9934    0.0000    0.0000 C   0  0  0  0  0  0  0  0  0  0  0  0
    3.2789   -0.4125    0.0000 N   0  0  0  0  0  0  0  0  0  0  0  0
    2.5645    0.0000    0.0000 C   0  0  0  0  0  0  0  0  0  0  0  0
    2.5645    0.8250    0.0000 C   0  0  0  0  0  0  0  0  0  0  0  0
    1.7798    1.0799    0.0000 N   0  0  0  0  0  0  0  0  0  0  0  0
    1.2949    0.4125    0.0000 C   0  0  0  0  0  0  0  0  0  0  0  0
    1.7798   -0.2549    0.0000 N   0  0  0  0  0  0  0  0  0  0  0  0
    1.5249   -1.0396    0.0000 C   0  0  2  0  0  0  0  0  0  0  0  0
    2.0098   -1.7070    0.0000 O   0  0  0  0  0  0  0  0  0  0  0  0
    1.5249   -2.3744    0.0000 C   0  0  2  0  0  0  0  0  0  0  0  0
    1.7798   -3.1591    0.0000 C   0  0  0  0  0  0  0  0  0  0  0  0
    2.5868   -3.3306    0.0000 O   0  0  0  0  0  0  0  0  0  0  0  0
    0.7403   -2.1195    0.0000 C   0  0  1  0  0  0  0  0  0  0  0  0
    0.0728   -2.6044    0.0000 O   0  0  0  0  0  0  0  0  0  0  0  0
    0.7403   -1.2945    0.0000 C   0  0  1  0  0  0  0  0  0  0  0  0
    0.0728   -0.8096    0.0000 O   0  0  0  0  0  0  0  0  0  0  0  0
  1  2  1  0  0  0  0
  2  3  1  0  0  0  0
  3  4  2  0  0  0  0
  4  5  1  0  0  0  0
  5  6  2  0  0  0  0
  6  7  1  0  0  0  0
  2  7  2  0  0  0  0
  7  8  1  0  0  0  0
  8  9  2  0  0  0  0
  9 10  1  0  0  0  0
  6 10  1  0  0  0  0
 11 10  1  6  0  0  0
 11 12  1  0  0  0  0
 13 12  1  0  0  0  0
 13 14  1  6  0  0  0
 14 15  1  0  0  0  0
 16 13  1  0  0  0  0
 16 17  1  1  0  0  0
 16 18  1  0  0  0  0
 18 11  1  0  0  0  0
 18 19  1  1  0  0  0
M  END
>  <Catalog ID>
Z1341543331

>  <Plate_ID>
2026983-X50-01

>  <Well>
B10

>  <V, µL>
50

>  <Conc, mM>
10

>  <Formula>
C10H13N5O4

>  <MW>
267.2413

>  <Purity>
95

>  <PO>
5A-64168

>  <MW_salt>
0

>  <Stereochem.data>
Single known enantiomer

>  <Geometric.isomer>
None

>  <Chemical name>
(2R,3R,4S,5R)-2-(6-amino-9H-purin-9-yl)-5-(hydroxymethyl)oxolane-3,4-diol

>  <ClogP>
-2,158

>  <logS>
-1,38

>  <HBD>
4

>  <HBA>
8

>  <TPSA>
139,54

>  <RotBonds>
2

$$$$

  Mrv1925 04172511352D          

 23 24  0  0  0  0            999 V2000
    0.0000   -1.6500    0.0000 C   0  0  0  0  0  0  0  0  0  0  0  0
    0.7145   -1.2375    0.0000 C   0  0  0  0  0  0  0  0  0  0  0  0
    0.7145   -0.4125    0.0000 N   0  0  0  0  0  0  0  0  0  0  0  0
   -0.0000    0.0000    0.0000 C   0  0  0  0  0  0  0  0  0  0  0  0
   -0.0000    0.8250    0.0000 C   0  0  0  0  0  0  0  0  0  0  0  0
   -0.7145    1.2375    0.0000 C   0  0  0  0  0  0  0  0  0  0  0  0
   -1.4289    1.6500    0.0000 N   0  0  0  0  0  0  0  0  0  0  0  0
    0.7145    1.2375    0.0000 C   0  0  0  0  0  0  0  0  0  0  0  0
    0.7145    2.0625    0.0000 O   0  0  0  0  0  0  0  0  0  0  0  0
    1.4289    0.8250    0.0000 N   0  0  0  0  0  0  0  0  0  0  0  0
    2.1434    1.2375    0.0000 C   0  0  0  0  0  0  0  0  0  0  0  0
    2.8579    0.8250    0.0000 C   0  0  0  0  0  0  0  0  0  0  0  0
    3.5724    1.2375    0.0000 C   0  0  0  0  0  0  0  0  0  0  0  0
    4.2868    0.8250    0.0000 N   0  0  0  0  0  0  0  0  0  0  0  0
    5.0013    1.2375    0.0000 C   0  0  0  0  0  0  0  0  0  0  0  0
    5.0013    2.0625    0.0000 O   0  0  0  0  0  0  0  0  0  0  0  0
    5.7158    0.8250    0.0000 C   0  0  0  0  0  0  0  0  0  0  0  0
    6.4694    1.1606    0.0000 C   0  0  0  0  0  0  0  0  0  0  0  0
    7.0215    0.5475    0.0000 C   0  0  0  0  0  0  0  0  0  0  0  0
    6.6090   -0.1670    0.0000 C   0  0  0  0  0  0  0  0  0  0  0  0
    5.8020    0.0045    0.0000 C   0  0  0  0  0  0  0  0  0  0  0  0
    1.4289    0.0000    0.0000 C   0  0  0  0  0  0  0  0  0  0  0  0
    2.1434   -0.4125    0.0000 O   0  0  0  0  0  0  0  0  0  0  0  0
  1  2  1  0  0  0  0
  2  3  1  0  0  0  0
  3  4  1  0  0  0  0
  4  5  2  0  0  0  0
  5  6  1  0  0  0  0
  6  7  3  0  0  0  0
  5  8  1  0  0  0  0
  8  9  2  0  0  0  0
  8 10  1  0  0  0  0
 10 11  1  0  0  0  0
 11 12  1  0  0  0  0
 12 13  1  0  0  0  0
 13 14  1  0  0  0  0
 14 15  1  0  0  0  0
 15 16  2  0  0  0  0
 15 17  1  0  0  0  0
 17 18  1  0  0  0  0
 18 19  1  0  0  0  0
 19 20  1  0  0  0  0
 20 21  1  0  0  0  0
 17 21  1  0  0  0  0
 10 22  1  0  0  0  0
  3 22  1  0  0  0  0
 22 23  2  0  0  0  0
M  END
>  <Catalog ID>
Z1341535564

>  <Plate_ID>
2026983-X50-01

>  <Well>
C10

>  <V, µL>
50

>  <Conc, mM>
10

>  <Formula>
C16H22N4O3

>  <MW>
318.3709

>  <Purity>
100

>  <PO>
5A-64168

>  <MW_salt>
0

>  <Stereochem.data>
Achiral

>  <Geometric.isomer>
None

>  <Chemical name>
N-[3-(5-cyano-3-ethyl-2,6-dioxo-1,2,3,6-tetrahydropyrimidin-1-yl)propyl]cyclopentanecarboxamide

>  <ClogP>
1,285

>  <logS>
-2,654

>  <HBD>
1

>  <HBA>
4

>  <TPSA>
93,51

>  <RotBonds>
6

$$$$

  Mrv1925 04172511352D          

 18 19  0  0  0  0            999 V2000
    4.2868   -1.6500    0.0000 O   0  0  0  0  0  0  0  0  0  0  0  0
    3.5724   -1.2375    0.0000 C   0  0  0  0  0  0  0  0  0  0  0  0
    2.8579   -1.6500    0.0000 C   0  0  0  0  0  0  0  0  0  0  0  0
    2.8579   -2.4750    0.0000 N   0  0  0  0  0  0  0  0  0  0  0  0
    3.5724   -2.8875    0.0000 C   0  0  0  0  0  0  0  0  0  0  0  0
    3.5724   -3.7125    0.0000 C   0  0  0  0  0  0  0  0  0  0  0  0
    2.8579   -4.1250    0.0000 C   0  0  0  0  0  0  0  0  0  0  0  0
    2.8579   -4.9500    0.0000 O   0  0  0  0  0  0  0  0  0  0  0  0
    2.1434   -3.7125    0.0000 N   0  0  0  0  0  0  0  0  0  0  0  0
    2.1434   -2.8875    0.0000 C   0  0  0  0  0  0  0  0  0  0  0  0
    1.4289   -2.4750    0.0000 O   0  0  0  0  0  0  0  0  0  0  0  0
    3.5724   -0.4125    0.0000 N   0  0  0  0  0  0  0  0  0  0  0  0
    4.2868    0.0000    0.0000 C   0  0  0  0  0  0  0  0  0  0  0  0
    4.2868    0.8250    0.0000 C   0  0  0  0  0  0  0  0  0  0  0  0
    5.0013    1.2375    0.0000 C   0  0  0  0  0  0  0  0  0  0  0  0
    5.7158    0.8250    0.0000 C   0  0  0  0  0  0  0  0  0  0  0  0
    5.7158   -0.0000    0.0000 C   0  0  0  0  0  0  0  0  0  0  0  0
    5.0013   -0.4125    0.0000 C   0  0  0  0  0  0  0  0  0  0  0  0
  1  2  2  0  0  0  0
  2  3  1  0  0  0  0
  3  4  1  0  0  0  0
  4  5  1  0  0  0  0
  5  6  2  0  0  0  0
  6  7  1  0  0  0  0
  7  8  2  0  0  0  0
  7  9  1  0  0  0  0
  9 10  1  0  0  0  0
  4 10  1  0  0  0  0
 10 11  2  0  0  0  0
  2 12  1  0  0  0  0
 12 13  1  0  0  0  0
 13 14  1  0  0  0  0
 14 15  1  0  0  0  0
 15 16  1  0  0  0  0
 16 17  1  0  0  0  0
 17 18  1  0  0  0  0
 13 18  1  0  0  0  0
M  END
>  <Catalog ID>
Z135417488

>  <Plate_ID>
2026983-X50-01

>  <Well>
D10

>  <V, µL>
50

>  <Conc, mM>
10

>  <Formula>
C12H17N3O3

>  <MW>
251.2817

>  <Purity>
100

>  <PO>
5A-64168

>  <MW_salt>
0

>  <Stereochem.data>
Achiral

>  <Geometric.isomer>
None

>  <Chemical name>
N-cyclohexyl-2-(2,4-dioxo-1,2,3,4-tetrahydropyrimidin-1-yl)acetamide

>  <ClogP>
0,29

>  <logS>
-2,5

>  <HBD>
2

>  <HBA>
3

>  <TPSA>
78,51

>  <RotBonds>
3

$$$$

  Mrv1925 04172511352D          

 19 20  0  0  0  0            999 V2000
    4.1381   -1.2636    0.0000 C   0  0  0  0  0  0  0  0  0  0  0  0
    4.8525   -0.8511    0.0000 C   0  0  0  0  0  0  0  0  0  0  0  0
    4.8525   -0.0261    0.0000 O   0  0  0  0  0  0  0  0  0  0  0  0
    5.5670   -1.2636    0.0000 O   0  0  0  0  0  0  0  0  0  0  0  0
    6.2815   -0.8511    0.0000 C   0  0  0  0  0  0  0  0  0  0  0  0
    6.9960   -1.2636    0.0000 C   0  0  0  0  0  0  0  0  0  0  0  0
    7.7104   -0.8511    0.0000 O   0  0  0  0  0  0  0  0  0  0  0  0
    8.4249   -1.2636    0.0000 C   0  0  0  0  0  0  0  0  0  0  0  0
    9.1394   -0.8511    0.0000 N   0  0  0  0  0  0  0  0  0  0  0  0
    9.2256   -0.0307    0.0000 C   0  0  0  0  0  0  0  0  0  0  0  0
   10.0326    0.1409    0.0000 N   0  0  0  0  0  0  0  0  0  0  0  0
   10.4451   -0.5736    0.0000 C   0  0  0  0  0  0  0  0  0  0  0  0
   11.2521   -0.7451    0.0000 C   0  0  0  0  0  0  0  0  0  0  0  0
   11.8041   -0.1320    0.0000 O   0  0  0  0  0  0  0  0  0  0  0  0
   11.5070   -1.5298    0.0000 N   0  0  0  0  0  0  0  0  0  0  0  0
   10.9550   -2.1428    0.0000 C   0  0  0  0  0  0  0  0  0  0  0  0
   11.2099   -2.9275    0.0000 N   0  0  0  0  0  0  0  0  0  0  0  0
   10.1480   -1.9713    0.0000 N   0  0  0  0  0  0  0  0  0  0  0  0
    9.8930   -1.1867    0.0000 C   0  0  0  0  0  0  0  0  0  0  0  0
  1  2  1  0  0  0  0
  2  3  2  0  0  0  0
  2  4  1  0  0  0  0
  4  5  1  0  0  0  0
  5  6  1  0  0  0  0
  6  7  1  0  0  0  0
  7  8  1  0  0  0  0
  8  9  1  0  0  0  0
  9 10  1  0  0  0  0
 10 11  2  0  0  0  0
 11 12  1  0  0  0  0
 12 13  1  0  0  0  0
 13 14  2  0  0  0  0
 13 15  1  0  0  0  0
 15 16  1  0  0  0  0
 16 17  1  0  0  0  0
 16 18  2  0  0  0  0
 18 19  1  0  0  0  0
 12 19  2  0  0  0  0
  9 19  1  0  0  0  0
M  END
>  <Catalog ID>
Z2025567901

>  <Plate_ID>
2026983-X50-01

>  <Well>
E10

>  <V, µL>
50

>  <Conc, mM>
10

>  <Formula>
C10H13N5O4

>  <MW>
267.2413

>  <Purity>
100

>  <PO>
5A-64168

>  <MW_salt>
0

>  <Stereochem.data>
Achiral

>  <Geometric.isomer>
None

>  <Chemical name>
2-[(2-amino-6-oxo-6,9-dihydro-1H-purin-9-yl)methoxy]ethyl acetate

>  <ClogP>
-1,526

>  <logS>
-1,601

>  <HBD>
2

>  <HBA>
6

>  <TPSA>
120,83

>  <RotBonds>
6

$$$$

  Mrv1925 04172511352D          

  0  0  0     0  0            999 V3000
M  V30 BEGIN CTAB
M  V30 COUNTS 18 18 0 0 0
M  V30 BEGIN ATOM
M  V30 1 Cl 0 0 0 0
M  V30 2 C 4.6653 4.6511 0 0
M  V30 3 N 4.6653 3.1111 0 0
M  V30 4 C 5.9112 2.2059 0 0
M  V30 5 C 5.4353 0.7413 0 0
M  V30 6 C 3.8953 0.7413 0 0
M  V30 7 N 3.4194 2.2059 0 0
M  V30 8 C 6.3405 -0.5046 0 0 CFG=1
M  V30 9 C 7.8805 -0.5046 0 0 CFG=2
M  V30 10 C 8.7857 0.7413 0 0
M  V30 11 O 8.1593 2.1482 0 0
M  V30 12 O 10.3173 0.5803 0 0
M  V30 13 C 8.3564 -1.9692 0 0 CFG=2
M  V30 14 O 9.821 -2.4451 0 0
M  V30 15 C 7.1105 -2.8744 0 0
M  V30 16 O 7.1105 -4.4144 0 0
M  V30 17 N 5.8646 -1.9692 0 0
M  V30 18 C 4.4 -2.4451 0 0
M  V30 END ATOM
M  V30 BEGIN BOND
M  V30 1 1 2 3
M  V30 2 1 3 4
M  V30 3 2 4 5
M  V30 4 1 5 6
M  V30 5 2 6 7
M  V30 6 1 3 7
M  V30 7 1 8 5 CFG=1
M  V30 8 1 9 8
M  V30 9 1 9 10 CFG=3
M  V30 10 2 10 11
M  V30 11 1 10 12
M  V30 12 1 9 13
M  V30 13 1 13 14 CFG=3
M  V30 14 1 13 15
M  V30 15 2 15 16
M  V30 16 1 15 17
M  V30 17 1 8 17
M  V30 18 1 17 18
M  V30 END BOND
M  V30 BEGIN COLLECTION
M  V30 MDLV30/STERAC1 ATOMS=(3 8 9 13)
M  V30 END COLLECTION
M  V30 END CTAB
M  END
>  <Catalog ID>
Z2752584332

>  <Plate_ID>
2026983-X50-01

>  <Well>
F10

>  <V, µL>
50

>  <Conc, mM>
10

>  <Formula>
C10H14ClN3O4

>  <MW>
275.6889

>  <Purity>
100

>  <PO>
5A-64168

>  <Salt smiles>
Cl

>  <Salt_name>
Hydrochloric Acid

>  <Salt_ratio>
1

>  <MW_salt>
36.4609

>  <Stereochem.data>
Racemic diastereomer with known relative stereochemistry

>  <Geometric.isomer>
None

>  <Chemical name>
rac-(2R,3S,4S)-4-hydroxy-1-methyl-2-(1-methyl-1H-pyrazol-4-yl)-5-oxopyrrolidine-3-carboxylic acid hydrochloride

>  <ClogP>
-0,955

>  <logS>
-0,468

>  <HBD>
2

>  <HBA>
5

>  <TPSA>
95,66

>  <RotBonds>
2

$$$$

  Mrv1925 04172511352D          

 14 15  0  0  0  0            999 V2000
    1.3222    4.7652    0.0000 N   0  0  0  0  0  0  0  0  0  0  0  0
    2.0367    4.3527    0.0000 C   0  0  0  0  0  0  0  0  0  0  0  0
    2.7512    4.7652    0.0000 N   0  0  0  0  0  0  0  0  0  0  0  0
    3.4656    4.3527    0.0000 C   0  0  0  0  0  0  0  0  0  0  0  0
    3.4656    3.5277    0.0000 C   0  0  0  0  0  0  0  0  0  0  0  0
    2.7512    3.1152    0.0000 C   0  0  0  0  0  0  0  0  0  0  0  0
    2.0367    3.5277    0.0000 N   0  0  0  0  0  0  0  0  0  0  0  0
    2.7512    2.2902    0.0000 N   0  0  0  0  0  0  0  0  0  0  0  0
    3.4186    1.8053    0.0000 C   0  0  0  0  0  0  0  0  0  0  0  0
    3.1637    1.0206    0.0000 C   0  0  0  0  0  0  0  0  0  0  0  0
    2.3387    1.0206    0.0000 C   0  0  0  0  0  0  0  0  0  0  0  0
    2.0837    1.8053    0.0000 C   0  0  0  0  0  0  0  0  0  0  0  0
    1.2991    2.0602    0.0000 C   0  0  0  0  0  0  0  0  0  0  0  0
    0.6860    1.5082    0.0000 O   0  0  0  0  0  0  0  0  0  0  0  0
  1  2  1  0  0  0  0
  2  3  1  0  0  0  0
  3  4  2  0  0  0  0
  4  5  1  0  0  0  0
  5  6  2  0  0  0  0
  6  7  1  0  0  0  0
  2  7  2  0  0  0  0
  6  8  1  0  0  0  0
  8  9  1  0  0  0  0
  9 10  1  0  0  0  0
 10 11  1  0  0  0  0
 11 12  1  0  0  0  0
  8 12  1  0  0  0  0
 12 13  1  0  0  0  0
 13 14  1  0  0  0  0
M  END
>  <Catalog ID>
Z1431068613

>  <Plate_ID>
2026983-X50-01

>  <Well>
G10

>  <V, µL>
50

>  <Conc, mM>
10

>  <Formula>
C9H14N4O

>  <MW>
194.2337

>  <Purity>
100

>  <PO>
5A-64168

>  <MW_salt>
0

>  <Stereochem.data>
Racemic or presumed racemic or meso

>  <Geometric.isomer>
None

>  <Chemical name>
[1-(2-aminopyrimidin-4-yl)pyrrolidin-2-yl]methanol

>  <ClogP>
-0,017

>  <logS>
-1,56

>  <HBD>
2

>  <HBA>
5

>  <TPSA>
75,27

>  <RotBonds>
2

$$$$

  Mrv1925 04172511352D          

 30 33  0  0  0  0            999 V2000
    3.5724   -3.7125    0.0000 O   0  0  0  0  0  0  0  0  0  0  0  0
    3.5724   -2.8875    0.0000 C   0  0  0  0  0  0  0  0  0  0  0  0
    4.2868   -2.4750    0.0000 C   0  0  0  0  0  0  0  0  0  0  0  0
    5.0013   -2.8875    0.0000 N   0  0  0  0  0  0  0  0  0  0  0  0
    5.7158   -2.4750    0.0000 C   0  0  0  0  0  0  0  0  0  0  0  0
    5.7158   -1.6500    0.0000 O   0  0  0  0  0  0  0  0  0  0  0  0
    6.4302   -2.8875    0.0000 C   0  0  0  0  0  0  0  0  0  0  0  0
    7.1447   -2.4750    0.0000 F   0  0  0  0  0  0  0  0  0  0  0  0
    6.4302   -3.7125    0.0000 C   0  0  0  0  0  0  0  0  0  0  0  0
    5.7158   -4.1250    0.0000 N   0  0  0  0  0  0  0  0  0  0  0  0
    5.0013   -3.7125    0.0000 C   0  0  0  0  0  0  0  0  0  0  0  0
    4.2868   -4.1250    0.0000 O   0  0  0  0  0  0  0  0  0  0  0  0
    5.7158   -4.9500    0.0000 C   0  0  0  0  0  0  0  0  0  0  0  0
    6.3832   -5.4349    0.0000 C   0  0  0  0  0  0  0  0  0  0  0  0
    6.1283   -6.2195    0.0000 C   0  0  0  0  0  0  0  0  0  0  0  0
    5.3033   -6.2195    0.0000 C   0  0  0  0  0  0  0  0  0  0  0  0
    5.0483   -5.4349    0.0000 O   0  0  0  0  0  0  0  0  0  0  0  0
    2.8579   -2.4750    0.0000 N   0  0  0  0  0  0  0  0  0  0  0  0
    2.1434   -2.8875    0.0000 C   0  0  0  0  0  0  0  0  0  0  0  0
    1.4289   -2.4750    0.0000 C   0  0  0  0  0  0  0  0  0  0  0  0
    1.4289   -1.6500    0.0000 C   0  0  0  0  0  0  0  0  0  0  0  0
    0.7145   -1.2375    0.0000 C   0  0  0  0  0  0  0  0  0  0  0  0
    0.7145   -0.4125    0.0000 C   0  0  0  0  0  0  0  0  0  0  0  0
    0.0000    0.0000    0.0000 C   0  0  0  0  0  0  0  0  0  0  0  0
    0.0000    0.8250    0.0000 C   0  0  0  0  0  0  0  0  0  0  0  0
    0.7145    1.2375    0.0000 C   0  0  0  0  0  0  0  0  0  0  0  0
    1.4289    0.8250    0.0000 C   0  0  0  0  0  0  0  0  0  0  0  0
    1.4289    0.0000    0.0000 C   0  0  0  0  0  0  0  0  0  0  0  0
    2.1434   -1.2375    0.0000 C   0  0  0  0  0  0  0  0  0  0  0  0
    2.8579   -1.6500    0.0000 C   0  0  0  0  0  0  0  0  0  0  0  0
  1  2  2  0  0  0  0
  2  3  1  0  0  0  0
  3  4  1  0  0  0  0
  4  5  1  0  0  0  0
  5  6  2  0  0  0  0
  5  7  1  0  0  0  0
  7  8  1  0  0  0  0
  7  9  2  0  0  0  0
  9 10  1  0  0  0  0
 10 11  1  0  0  0  0
  4 11  1  0  0  0  0
 11 12  2  0  0  0  0
 10 13  1  0  0  0  0
 13 14  1  0  0  0  0
 14 15  1  0  0  0  0
 15 16  1  0  0  0  0
 16 17  1  0  0  0  0
 13 17  1  0  0  0  0
  2 18  1  0  0  0  0
 18 19  1  0  0  0  0
 19 20  1  0  0  0  0
 20 21  1  0  0  0  0
 21 22  1  0  0  0  0
 22 23  1  0  0  0  0
 23 24  1  0  0  0  0
 24 25  2  0  0  0  0
 25 26  1  0  0  0  0
 26 27  2  0  0  0  0
 27 28  1  0  0  0  0
 23 28  2  0  0  0  0
 21 29  1  0  0  0  0
 29 30  1  0  0  0  0
 18 30  1  0  0  0  0
M  END
>  <Catalog ID>
Z107295666

>  <Plate_ID>
2026983-X50-01

>  <Well>
H10

>  <V, µL>
50

>  <Conc, mM>
10

>  <Formula>
C22H26FN3O4

>  <MW>
415.4579

>  <Purity>
95.5

>  <PO>
5A-64168

>  <MW_salt>
0

>  <Stereochem.data>
Racemic or presumed racemic or meso

>  <Geometric.isomer>
None

>  <Chemical name>
3-[2-(4-benzylpiperidin-1-yl)-2-oxoethyl]-5-fluoro-1-(oxolan-2-yl)-1,2,3,4-tetrahydropyrimidine-2,4-dione

>  <ClogP>
3,471

>  <logS>
-3,31

>  <HBD>
0

>  <HBA>
4

>  <TPSA>
70,16

>  <RotBonds>
5

$$$$

  Mrv1925 04172511352D          

 30 33  0  0  0  0            999 V2000
    1.4289   -1.6500    0.0000 C   0  0  0  0  0  0  0  0  0  0  0  0
    1.4289   -2.4750    0.0000 C   0  0  0  0  0  0  0  0  0  0  0  0
    2.0964   -2.9599    0.0000 C   0  0  0  0  0  0  0  0  0  0  0  0
    1.8414   -3.7445    0.0000 C   0  0  0  0  0  0  0  0  0  0  0  0
    2.3264   -4.4120    0.0000 C   0  0  0  0  0  0  0  0  0  0  0  0
    1.9908   -5.1657    0.0000 O   0  0  0  0  0  0  0  0  0  0  0  0
    3.1468   -4.3257    0.0000 C   0  0  0  0  0  0  0  0  0  0  0  0
    3.6318   -4.9932    0.0000 N   0  0  0  0  0  0  0  0  0  0  0  0
    4.4522   -4.9070    0.0000 C   0  0  0  0  0  0  0  0  0  0  0  0
    4.7878   -4.1533    0.0000 O   0  0  0  0  0  0  0  0  0  0  0  0
    4.9372   -5.5744    0.0000 C   0  0  0  0  0  0  0  0  0  0  0  0
    5.7577   -5.4882    0.0000 F   0  0  0  0  0  0  0  0  0  0  0  0
    4.6016   -6.3281    0.0000 C   0  0  0  0  0  0  0  0  0  0  0  0
    3.7811   -6.4143    0.0000 N   0  0  0  0  0  0  0  0  0  0  0  0
    3.2962   -5.7469    0.0000 C   0  0  0  0  0  0  0  0  0  0  0  0
    2.4757   -5.8331    0.0000 O   0  0  0  0  0  0  0  0  0  0  0  0
    3.4456   -7.1680    0.0000 C   0  0  0  0  0  0  0  0  0  0  0  0
    3.8581   -7.8824    0.0000 C   0  0  0  0  0  0  0  0  0  0  0  0
    3.3060   -8.4955    0.0000 C   0  0  0  0  0  0  0  0  0  0  0  0
    2.5524   -8.1600    0.0000 C   0  0  0  0  0  0  0  0  0  0  0  0
    2.6386   -7.3395    0.0000 O   0  0  0  0  0  0  0  0  0  0  0  0
    1.0164   -3.7445    0.0000 C   0  0  0  0  0  0  0  0  0  0  0  0
    0.5315   -4.4120    0.0000 C   0  0  0  0  0  0  0  0  0  0  0  0
    0.7615   -2.9599    0.0000 N   0  0  0  0  0  0  0  0  0  0  0  0
   -0.0231   -2.7050    0.0000 C   0  0  0  0  0  0  0  0  0  0  0  0
   -0.1946   -1.8980    0.0000 C   0  0  0  0  0  0  0  0  0  0  0  0
   -0.9483   -1.5625    0.0000 C   0  0  0  0  0  0  0  0  0  0  0  0
   -0.8621   -0.7420    0.0000 C   0  0  0  0  0  0  0  0  0  0  0  0
   -0.0551   -0.5704    0.0000 C   0  0  0  0  0  0  0  0  0  0  0  0
    0.3574   -1.2849    0.0000 S   0  0  0  0  0  0  0  0  0  0  0  0
  1  2  1  0  0  0  0
  2  3  2  0  0  0  0
  3  4  1  0  0  0  0
  4  5  1  0  0  0  0
  5  6  2  0  0  0  0
  5  7  1  0  0  0  0
  7  8  1  0  0  0  0
  8  9  1  0  0  0  0
  9 10  2  0  0  0  0
  9 11  1  0  0  0  0
 11 12  1  0  0  0  0
 11 13  2  0  0  0  0
 13 14  1  0  0  0  0
 14 15  1  0  0  0  0
  8 15  1  0  0  0  0
 15 16  2  0  0  0  0
 14 17  1  0  0  0  0
 17 18  1  0  0  0  0
 18 19  1  0  0  0  0
 19 20  1  0  0  0  0
 20 21  1  0  0  0  0
 17 21  1  0  0  0  0
  4 22  2  0  0  0  0
 22 23  1  0  0  0  0
 22 24  1  0  0  0  0
  2 24  1  0  0  0  0
 24 25  1  0  0  0  0
 25 26  1  0  0  0  0
 26 27  2  0  0  0  0
 27 28  1  0  0  0  0
 28 29  2  0  0  0  0
 29 30  1  0  0  0  0
 26 30  1  0  0  0  0
M  END
>  <Catalog ID>
Z94559553

>  <Plate_ID>
2026983-X50-01

>  <Well>
A11

>  <V, µL>
50

>  <Conc, mM>
10

>  <Formula>
C21H22FN3O4S

>  <MW>
431.4805

>  <Purity>
96.88

>  <PO>
5A-64168

>  <MW_salt>
0

>  <Stereochem.data>
Racemic or presumed racemic or meso

>  <Geometric.isomer>
None

>  <Chemical name>
3-(2-{2,5-dimethyl-1-[(thiophen-2-yl)methyl]-1H-pyrrol-3-yl}-2-oxoethyl)-5-fluoro-1-(oxolan-2-yl)-1,2,3,4-tetrahydropyrimidine-2,4-dione

>  <ClogP>
3,748

>  <logS>
-3,09

>  <HBD>
0

>  <HBA>
4

>  <TPSA>
71,85

>  <RotBonds>
6

$$$$

  Mrv1925 04172511352D          

 14 15  0  0  0  0            999 V2000
    0.7145    6.7661    0.0000 O   0  0  0  0  0  0  0  0  0  0  0  0
    0.7145    5.9411    0.0000 C   0  0  0  0  0  0  0  0  0  0  0  0
    1.4289    5.5286    0.0000 N   0  0  0  0  0  0  0  0  0  0  0  0
    1.4289    4.7036    0.0000 C   0  0  0  0  0  0  0  0  0  0  0  0
    2.1434    4.2911    0.0000 O   0  0  0  0  0  0  0  0  0  0  0  0
    0.7145    4.2911    0.0000 N   0  0  0  0  0  0  0  0  0  0  0  0
    0.0000    4.7036    0.0000 C   0  0  0  0  0  0  0  0  0  0  0  0
    0.0000    5.5286    0.0000 C   0  0  0  0  0  0  0  0  0  0  0  0
   -0.7145    5.9411    0.0000 F   0  0  0  0  0  0  0  0  0  0  0  0
    0.7145    3.4661    0.0000 C   0  0  0  0  0  0  0  0  0  0  0  0
    1.3819    2.9812    0.0000 C   0  0  0  0  0  0  0  0  0  0  0  0
    1.1270    2.1965    0.0000 C   0  0  0  0  0  0  0  0  0  0  0  0
    0.3020    2.1965    0.0000 C   0  0  0  0  0  0  0  0  0  0  0  0
    0.0470    2.9812    0.0000 O   0  0  0  0  0  0  0  0  0  0  0  0
  1  2  2  0  0  0  0
  2  3  1  0  0  0  0
  3  4  1  0  0  0  0
  4  5  2  0  0  0  0
  4  6  1  0  0  0  0
  6  7  1  0  0  0  0
  7  8  2  0  0  0  0
  2  8  1  0  0  0  0
  8  9  1  0  0  0  0
  6 10  1  0  0  0  0
 10 11  1  0  0  0  0
 11 12  1  0  0  0  0
 12 13  1  0  0  0  0
 13 14  1  0  0  0  0
 10 14  1  0  0  0  0
M  END
>  <Catalog ID>
Z104508106

>  <Plate_ID>
2026983-X50-01

>  <Well>
B11

>  <V, µL>
50

>  <Conc, mM>
10

>  <Formula>
C8H9FN2O3

>  <MW>
200.1671

>  <Purity>
95.5

>  <PO>
5A-64168

>  <MW_salt>
0

>  <Stereochem.data>
Racemic or presumed racemic or meso

>  <Geometric.isomer>
None

>  <Chemical name>
5-fluoro-1-(oxolan-2-yl)-1,2,3,4-tetrahydropyrimidine-2,4-dione

>  <ClogP>
-0,065

>  <logS>
-1,21

>  <HBD>
1

>  <HBA>
3

>  <TPSA>
58,64

>  <RotBonds>
1

$$$$

  Mrv1925 04172511352D          

 26 28  0  0  0  0            999 V2000
    4.1801   -0.0616    0.0000 C   0  0  0  0  0  0  0  0  0  0  0  0
    3.4656   -0.4741    0.0000 C   0  0  0  0  0  0  0  0  0  0  0  0
    3.4656   -1.2991    0.0000 C   0  0  0  0  0  0  0  0  0  0  0  0
    2.7512   -1.7116    0.0000 N   0  0  0  0  0  0  0  0  0  0  0  0
    2.0367   -1.2991    0.0000 C   0  0  0  0  0  0  0  0  0  0  0  0
    1.3222   -1.7116    0.0000 O   0  0  0  0  0  0  0  0  0  0  0  0
    2.0367   -0.4741    0.0000 N   0  0  0  0  0  0  0  0  0  0  0  0
    2.7512   -0.0616    0.0000 C   0  0  0  0  0  0  0  0  0  0  0  0
    2.7512    0.7634    0.0000 O   0  0  0  0  0  0  0  0  0  0  0  0
    2.7512   -2.5366    0.0000 C   0  0  0  0  0  0  0  0  0  0  0  0
    3.4186   -3.0215    0.0000 O   0  0  0  0  0  0  0  0  0  0  0  0
    3.1637   -3.8062    0.0000 C   0  0  0  0  0  0  0  0  0  0  0  0
    3.6486   -4.4736    0.0000 C   0  0  0  0  0  0  0  0  0  0  0  0
    3.3130   -5.2273    0.0000 O   0  0  0  0  0  0  0  0  0  0  0  0
    3.7980   -5.8947    0.0000 C   0  0  0  0  0  0  0  0  0  0  0  0
    4.6184   -5.8085    0.0000 O   0  0  0  0  0  0  0  0  0  0  0  0
    3.4624   -6.6484    0.0000 C   0  0  0  0  0  0  0  0  0  0  0  0
    3.9473   -7.3158    0.0000 C   0  0  0  0  0  0  0  0  0  0  0  0
    3.6118   -8.0695    0.0000 C   0  0  0  0  0  0  0  0  0  0  0  0
    2.7913   -8.1557    0.0000 C   0  0  0  0  0  0  0  0  0  0  0  0
    2.3064   -7.4883    0.0000 C   0  0  0  0  0  0  0  0  0  0  0  0
    2.6419   -6.7346    0.0000 C   0  0  0  0  0  0  0  0  0  0  0  0
    2.3387   -3.8062    0.0000 C   0  0  0  0  0  0  0  0  0  0  0  0
    1.8538   -4.4736    0.0000 O   0  0  0  0  0  0  0  0  0  0  0  0
    2.0837   -3.0215    0.0000 C   0  0  0  0  0  0  0  0  0  0  0  0
    1.2991   -2.7666    0.0000 O   0  0  0  0  0  0  0  0  0  0  0  0
  1  2  1  0  0  0  0
  2  3  2  0  0  0  0
  3  4  1  0  0  0  0
  4  5  1  0  0  0  0
  5  6  2  0  0  0  0
  5  7  1  0  0  0  0
  7  8  1  0  0  0  0
  2  8  1  0  0  0  0
  8  9  2  0  0  0  0
  4 10  1  0  0  0  0
 10 11  1  0  0  0  0
 11 12  1  0  0  0  0
 12 13  1  0  0  0  0
 13 14  1  0  0  0  0
 14 15  1  0  0  0  0
 15 16  2  0  0  0  0
 15 17  1  0  0  0  0
 17 18  1  0  0  0  0
 18 19  2  0  0  0  0
 19 20  1  0  0  0  0
 20 21  2  0  0  0  0
 21 22  1  0  0  0  0
 17 22  2  0  0  0  0
 12 23  1  0  0  0  0
 23 24  1  0  0  0  0
 23 25  1  0  0  0  0
 10 25  1  0  0  0  0
 25 26  1  0  0  0  0
M  END
>  <Catalog ID>
Z56786759

>  <Plate_ID>
2026983-X50-01

>  <Well>
C11

>  <V, µL>
50

>  <Conc, mM>
10

>  <Formula>
C17H18N2O7

>  <MW>
362.334

>  <Purity>
100

>  <PO>
5A-64168

>  <MW_salt>
0

>  <Stereochem.data>
Diastereomeric mixture

>  <Geometric.isomer>
None

>  <Chemical name>
[3,4-dihydroxy-5-(5-methyl-2,4-dioxo-1,2,3,4-tetrahydropyrimidin-1-yl)oxolan-2-yl]methyl benzoate

>  <ClogP>
0,251

>  <logS>
-3,3

>  <HBD>
3

>  <HBA>
6

>  <TPSA>
125,4

>  <RotBonds>
5

$$$$

  Mrv1925 04172511352D          

 33 36  0  0  0  0            999 V2000
    1.4289   -4.1250    0.0000 O   0  0  0  0  0  0  0  0  0  0  0  0
    1.4289   -3.3000    0.0000 C   0  0  0  0  0  0  0  0  0  0  0  0
    0.7145   -2.8875    0.0000 C   0  0  0  0  0  0  0  0  0  0  0  0
    0.0000   -3.3000    0.0000 N   0  0  0  0  0  0  0  0  0  0  0  0
    0.0000   -4.1250    0.0000 C   0  0  0  0  0  0  0  0  0  0  0  0
    0.7145   -4.5375    0.0000 O   0  0  0  0  0  0  0  0  0  0  0  0
   -0.7145   -4.5375    0.0000 C   0  0  0  0  0  0  0  0  0  0  0  0
   -0.7145   -5.3625    0.0000 F   0  0  0  0  0  0  0  0  0  0  0  0
   -1.4289   -4.1250    0.0000 C   0  0  0  0  0  0  0  0  0  0  0  0
   -1.4289   -3.3000    0.0000 N   0  0  0  0  0  0  0  0  0  0  0  0
   -0.7145   -2.8875    0.0000 C   0  0  0  0  0  0  0  0  0  0  0  0
   -0.7145   -2.0625    0.0000 O   0  0  0  0  0  0  0  0  0  0  0  0
   -2.1434   -2.8875    0.0000 C   0  0  0  0  0  0  0  0  0  0  0  0
   -2.8971   -3.2231    0.0000 C   0  0  0  0  0  0  0  0  0  0  0  0
   -3.4491   -2.6100    0.0000 C   0  0  0  0  0  0  0  0  0  0  0  0
   -3.0366   -1.8955    0.0000 C   0  0  0  0  0  0  0  0  0  0  0  0
   -2.2296   -2.0670    0.0000 O   0  0  0  0  0  0  0  0  0  0  0  0
    2.1434   -2.8875    0.0000 N   0  0  0  0  0  0  0  0  0  0  0  0
    2.8579   -3.3000    0.0000 C   0  0  0  0  0  0  0  0  0  0  0  0
    3.5724   -2.8875    0.0000 C   0  0  0  0  0  0  0  0  0  0  0  0
    4.2868   -3.3000    0.0000 C   0  0  0  0  0  0  0  0  0  0  0  0
    5.0013   -2.8875    0.0000 C   0  0  0  0  0  0  0  0  0  0  0  0
    5.7158   -3.3000    0.0000 C   0  0  0  0  0  0  0  0  0  0  0  0
    5.7158   -4.1250    0.0000 C   0  0  0  0  0  0  0  0  0  0  0  0
    5.0013   -4.5375    0.0000 C   0  0  0  0  0  0  0  0  0  0  0  0
    4.2868   -4.1250    0.0000 C   0  0  0  0  0  0  0  0  0  0  0  0
    2.1434   -2.0625    0.0000 C   0  0  0  0  0  0  0  0  0  0  0  0
    2.8579   -1.6500    0.0000 C   0  0  0  0  0  0  0  0  0  0  0  0
    2.8579   -0.8250    0.0000 C   0  0  0  0  0  0  0  0  0  0  0  0
    3.5724   -0.4125    0.0000 C   0  0  0  0  0  0  0  0  0  0  0  0
    4.2868   -0.8250    0.0000 C   0  0  0  0  0  0  0  0  0  0  0  0
    4.2868   -1.6500    0.0000 C   0  0  0  0  0  0  0  0  0  0  0  0
    3.5724   -2.0625    0.0000 C   0  0  0  0  0  0  0  0  0  0  0  0
  1  2  2  0  0  0  0
  2  3  1  0  0  0  0
  3  4  1  0  0  0  0
  4  5  1  0  0  0  0
  5  6  2  0  0  0  0
  5  7  1  0  0  0  0
  7  8  1  0  0  0  0
  7  9  2  0  0  0  0
  9 10  1  0  0  0  0
 10 11  1  0  0  0  0
  4 11  1  0  0  0  0
 11 12  2  0  0  0  0
 10 13  1  0  0  0  0
 13 14  1  0  0  0  0
 14 15  1  0  0  0  0
 15 16  1  0  0  0  0
 16 17  1  0  0  0  0
 13 17  1  0  0  0  0
  2 18  1  0  0  0  0
 18 19  1  0  0  0  0
 19 20  1  0  0  0  0
 20 21  1  0  0  0  0
 21 22  1  0  0  0  0
 22 23  2  0  0  0  0
 23 24  1  0  0  0  0
 24 25  2  0  0  0  0
 25 26  1  0  0  0  0
 21 26  2  0  0  0  0
 18 27  1  0  0  0  0
 27 28  1  0  0  0  0
 28 29  1  0  0  0  0
 29 30  2  0  0  0  0
 30 31  1  0  0  0  0
 31 32  2  0  0  0  0
 32 33  1  0  0  0  0
 28 33  2  0  0  0  0
M  END
>  <Catalog ID>
Z94557672

>  <Plate_ID>
2026983-X50-01

>  <Well>
D11

>  <V, µL>
50

>  <Conc, mM>
10

>  <Formula>
C25H26FN3O4

>  <MW>
451.49

>  <Purity>
100

>  <PO>
5A-64168

>  <MW_salt>
0

>  <Stereochem.data>
Racemic or presumed racemic or meso

>  <Geometric.isomer>
None

>  <Chemical name>
N-benzyl-2-[5-fluoro-2,6-dioxo-3-(oxolan-2-yl)-1,2,3,6-tetrahydropyrimidin-1-yl]-N-(2-phenylethyl)acetamide

>  <ClogP>
4,421

>  <logS>
-4,16

>  <HBD>
0

>  <HBA>
4

>  <TPSA>
70,16

>  <RotBonds>
8

$$$$

  Mrv1925 04172511352D          

 32 34  0  0  0  0            999 V2000
   -2.1619   -2.2233    0.0000 C   0  0  0  0  0  0  0  0  0  0  0  0
   -1.4082   -2.5588    0.0000 C   0  0  0  0  0  0  0  0  0  0  0  0
   -0.7408   -2.0739    0.0000 O   0  0  0  0  0  0  0  0  0  0  0  0
   -1.3220   -3.3793    0.0000 O   0  0  0  0  0  0  0  0  0  0  0  0
   -0.5683   -3.7149    0.0000 C   0  0  0  0  0  0  0  0  0  0  0  0
    0.0992   -3.2299    0.0000 C   0  0  0  0  0  0  0  0  0  0  0  0
    0.0992   -2.4049    0.0000 O   0  0  0  0  0  0  0  0  0  0  0  0
    0.8838   -2.1500    0.0000 C   0  0  0  0  0  0  0  0  0  0  0  0
    1.3687   -2.8174    0.0000 C   0  0  0  0  0  0  0  0  0  0  0  0
    2.1937   -2.8174    0.0000 O   0  0  0  0  0  0  0  0  0  0  0  0
    2.6062   -3.5319    0.0000 C   0  0  0  0  0  0  0  0  0  0  0  0
    3.4312   -3.5319    0.0000 C   0  0  0  0  0  0  0  0  0  0  0  0
    2.1937   -4.2464    0.0000 O   0  0  0  0  0  0  0  0  0  0  0  0
    0.8838   -3.4849    0.0000 C   0  0  0  0  0  0  0  0  0  0  0  0
    1.1387   -4.2695    0.0000 O   0  0  0  0  0  0  0  0  0  0  0  0
    0.5867   -4.8826    0.0000 C   0  0  0  0  0  0  0  0  0  0  0  0
   -0.2203   -4.7111    0.0000 C   0  0  0  0  0  0  0  0  0  0  0  0
    0.8416   -5.6672    0.0000 O   0  0  0  0  0  0  0  0  0  0  0  0
    1.1387   -1.3654    0.0000 N   0  0  0  0  0  0  0  0  0  0  0  0
    0.6538   -0.6979    0.0000 C   0  0  0  0  0  0  0  0  0  0  0  0
    1.1387   -0.0305    0.0000 N   0  0  0  0  0  0  0  0  0  0  0  0
    1.9233   -0.2854    0.0000 C   0  0  0  0  0  0  0  0  0  0  0  0
    2.6378    0.1271    0.0000 C   0  0  0  0  0  0  0  0  0  0  0  0
    2.6378    0.9521    0.0000 N   0  0  0  0  0  0  0  0  0  0  0  0
    3.3523   -0.2854    0.0000 N   0  0  0  0  0  0  0  0  0  0  0  0
    3.3523   -1.1104    0.0000 C   0  0  0  0  0  0  0  0  0  0  0  0
    2.6378   -1.5229    0.0000 N   0  0  0  0  0  0  0  0  0  0  0  0
    1.9233   -1.1104    0.0000 C   0  0  0  0  0  0  0  0  0  0  0  0
   -0.1712   -0.6979    0.0000 S   0  0  0  0  0  0  0  0  0  0  0  0
   -0.9962   -0.6979    0.0000 C   0  0  0  0  0  0  0  0  0  0  0  0
   -0.1712    0.1271    0.0000 O   0  0  0  0  0  0  0  0  0  0  0  0
   -0.1712   -1.5229    0.0000 O   0  0  0  0  0  0  0  0  0  0  0  0
  1  2  1  0  0  0  0
  2  3  2  0  0  0  0
  2  4  1  0  0  0  0
  4  5  1  0  0  0  0
  5  6  1  0  0  0  0
  6  7  1  0  0  0  0
  7  8  1  0  0  0  0
  8  9  1  0  0  0  0
  9 10  1  0  0  0  0
 10 11  1  0  0  0  0
 11 12  1  0  0  0  0
 11 13  2  0  0  0  0
  9 14  1  0  0  0  0
  6 14  1  0  0  0  0
 14 15  1  0  0  0  0
 15 16  1  0  0  0  0
 16 17  1  0  0  0  0
 16 18  2  0  0  0  0
  8 19  1  0  0  0  0
 19 20  1  0  0  0  0
 20 21  2  0  0  0  0
 21 22  1  0  0  0  0
 22 23  2  0  0  0  0
 23 24  1  0  0  0  0
 23 25  1  0  0  0  0
 25 26  2  0  0  0  0
 26 27  1  0  0  0  0
 27 28  2  0  0  0  0
 22 28  1  0  0  0  0
 19 28  1  0  0  0  0
 20 29  1  0  0  0  0
 29 30  1  0  0  0  0
 29 31  2  0  0  0  0
 29 32  2  0  0  0  0
M  END
>  <Catalog ID>
Z56777074

>  <Plate_ID>
2026983-X50-01

>  <Well>
E11

>  <V, µL>
50

>  <Conc, mM>
10

>  <Formula>
C17H21N5O9S

>  <MW>
471.4417

>  <Purity>
97.22

>  <PO>
5A-64168

>  <MW_salt>
0

>  <Stereochem.data>
Diastereomeric mixture

>  <Geometric.isomer>
None

>  <Chemical name>
[3,4-bis(acetyloxy)-5-(6-amino-8-methanesulfonyl-9H-purin-9-yl)oxolan-2-yl]methyl acetate

>  <ClogP>
-0,637

>  <logS>
-2,5

>  <HBD>
1

>  <HBA>
10

>  <TPSA>
191,89

>  <RotBonds>
9

$$$$

  Mrv1925 04172511352D          

 25 27  0  0  0  0            999 V2000
    5.0013   -0.4125    0.0000 C   0  0  0  0  0  0  0  0  0  0  0  0
    5.0013   -1.2375    0.0000 N   0  0  0  0  0  0  0  0  0  0  0  0
    5.7158   -1.6500    0.0000 C   0  0  0  0  0  0  0  0  0  0  0  0
    5.7158   -2.4750    0.0000 C   0  0  0  0  0  0  0  0  0  0  0  0
    5.0013   -2.8875    0.0000 N   0  0  0  0  0  0  0  0  0  0  0  0
    5.0013   -3.7125    0.0000 C   0  0  0  0  0  0  0  0  0  0  0  0
    4.2868   -4.1250    0.0000 C   0  0  0  0  0  0  0  0  0  0  0  0
    4.2868   -4.9500    0.0000 C   0  0  0  0  0  0  0  0  0  0  0  0
    3.5724   -5.3625    0.0000 C   0  0  0  0  0  0  0  0  0  0  0  0
    2.8579   -4.9500    0.0000 C   0  0  0  0  0  0  0  0  0  0  0  0
    2.8579   -4.1250    0.0000 C   0  0  0  0  0  0  0  0  0  0  0  0
    3.5724   -3.7125    0.0000 C   0  0  0  0  0  0  0  0  0  0  0  0
    2.1434   -5.3625    0.0000 C   0  0  0  0  0  0  0  0  0  0  0  0
    1.4289   -4.9500    0.0000 N   0  0  0  0  0  0  0  0  0  0  0  0
    0.7145   -5.3625    0.0000 C   0  0  0  0  0  0  0  0  0  0  0  0
   -0.0000   -4.9500    0.0000 C   0  0  0  0  0  0  0  0  0  0  0  0
   -0.7145   -5.3625    0.0000 C   0  0  0  0  0  0  0  0  0  0  0  0
   -1.4289   -5.7750    0.0000 N   0  0  0  0  0  0  0  0  0  0  0  0
    0.0000   -4.1250    0.0000 C   0  0  0  0  0  0  0  0  0  0  0  0
   -0.7145   -3.7125    0.0000 O   0  0  0  0  0  0  0  0  0  0  0  0
    0.7145   -3.7125    0.0000 N   0  0  0  0  0  0  0  0  0  0  0  0
    1.4289   -4.1250    0.0000 C   0  0  0  0  0  0  0  0  0  0  0  0
    2.1434   -3.7125    0.0000 O   0  0  0  0  0  0  0  0  0  0  0  0
    4.2868   -2.4750    0.0000 C   0  0  0  0  0  0  0  0  0  0  0  0
    4.2868   -1.6500    0.0000 C   0  0  0  0  0  0  0  0  0  0  0  0
  1  2  1  0  0  0  0
  2  3  1  0  0  0  0
  3  4  1  0  0  0  0
  4  5  1  0  0  0  0
  5  6  1  0  0  0  0
  6  7  1  0  0  0  0
  7  8  1  0  0  0  0
  8  9  2  0  0  0  0
  9 10  1  0  0  0  0
 10 11  2  0  0  0  0
 11 12  1  0  0  0  0
  7 12  2  0  0  0  0
 10 13  1  0  0  0  0
 13 14  1  0  0  0  0
 14 15  1  0  0  0  0
 15 16  2  0  0  0  0
 16 17  1  0  0  0  0
 17 18  3  0  0  0  0
 16 19  1  0  0  0  0
 19 20  2  0  0  0  0
 19 21  1  0  0  0  0
 21 22  1  0  0  0  0
 14 22  1  0  0  0  0
 22 23  2  0  0  0  0
  5 24  1  0  0  0  0
 24 25  1  0  0  0  0
  2 25  1  0  0  0  0
M  END
>  <Catalog ID>
Z666560160

>  <Plate_ID>
2026983-X50-01

>  <Well>
F11

>  <V, µL>
50

>  <Conc, mM>
10

>  <Formula>
C18H21N5O2

>  <MW>
339.3916

>  <Purity>
100

>  <PO>
5A-64168

>  <MW_salt>
0

>  <Stereochem.data>
Achiral

>  <Geometric.isomer>
None

>  <Chemical name>
1-({4-[(4-methylpiperazin-1-yl)methyl]phenyl}methyl)-2,4-dioxo-1,2,3,4-tetrahydropyrimidine-5-carbonitrile

>  <ClogP>
1,089

>  <logS>
-1,88

>  <HBD>
1

>  <HBA>
5

>  <TPSA>
79,68

>  <RotBonds>
4

$$$$

  Mrv1925 04172511352D          

 28 32  0  0  0  0            999 V2000
    4.1764    3.9995    0.0000 O   0  0  0  0  0  0  0  0  0  0  0  0
    3.6914    3.3320    0.0000 C   0  0  0  0  0  0  0  0  0  0  0  0
    3.9464    2.5474    0.0000 C   0  0  0  0  0  0  0  0  0  0  0  0
    3.2789    2.0625    0.0000 N   0  0  0  0  0  0  0  0  0  0  0  0
    2.6115    2.5474    0.0000 C   0  0  0  0  0  0  0  0  0  0  0  0
    2.8664    3.3320    0.0000 N   0  0  0  0  0  0  0  0  0  0  0  0
    2.3815    3.9995    0.0000 C   0  0  0  0  0  0  0  0  0  0  0  0
    2.7171    4.7532    0.0000 C   0  0  0  0  0  0  0  0  0  0  0  0
    2.6308    5.5736    0.0000 C   0  0  0  0  0  0  0  0  0  0  0  0
    3.3845    5.2381    0.0000 C   0  0  0  0  0  0  0  0  0  0  0  0
    3.2789    1.2375    0.0000 C   0  0  0  0  0  0  0  0  0  0  0  0
    3.9934    0.8250    0.0000 N   0  0  0  0  0  0  0  0  0  0  0  0
    3.9934    0.0000    0.0000 C   0  0  0  0  0  0  0  0  0  0  0  0
    3.2789   -0.4125    0.0000 N   0  0  0  0  0  0  0  0  0  0  0  0
    2.5645    0.0000    0.0000 C   0  0  0  0  0  0  0  0  0  0  0  0
    2.5645    0.8250    0.0000 C   0  0  0  0  0  0  0  0  0  0  0  0
    1.7798    1.0799    0.0000 N   0  0  0  0  0  0  0  0  0  0  0  0
    1.2949    0.4125    0.0000 C   0  0  0  0  0  0  0  0  0  0  0  0
    1.7798   -0.2549    0.0000 N   0  0  0  0  0  0  0  0  0  0  0  0
    1.5249   -1.0396    0.0000 C   0  0  0  0  0  0  0  0  0  0  0  0
    2.0769   -1.6527    0.0000 C   0  0  0  0  0  0  0  0  0  0  0  0
    1.3773   -2.0898    0.0000 C   0  0  0  0  0  0  0  0  0  0  0  0
    1.4061   -2.9143    0.0000 O   0  0  0  0  0  0  0  0  0  0  0  0
    2.5848   -1.0025    0.0000 C   0  0  0  0  0  0  0  0  0  0  0  0
    3.4018   -1.1174    0.0000 C   0  0  0  0  0  0  0  0  0  0  0  0
    3.7109   -1.8823    0.0000 O   0  0  0  0  0  0  0  0  0  0  0  0
    3.2030   -2.5324    0.0000 C   0  0  0  0  0  0  0  0  0  0  0  0
    2.3860   -2.4176    0.0000 C   0  0  0  0  0  0  0  0  0  0  0  0
  1  2  2  0  0  0  0
  2  3  1  0  0  0  0
  3  4  1  0  0  0  0
  4  5  1  0  0  0  0
  5  6  1  0  0  0  0
  2  6  1  0  0  0  0
  6  7  1  0  0  0  0
  7  8  1  0  0  0  0
  8  9  1  0  0  0  0
  9 10  1  0  0  0  0
  8 10  1  0  0  0  0
  4 11  1  0  0  0  0
 11 12  1  0  0  0  0
 12 13  2  0  0  0  0
 13 14  1  0  0  0  0
 14 15  2  0  0  0  0
 15 16  1  0  0  0  0
 11 16  2  0  0  0  0
 16 17  1  0  0  0  0
 17 18  2  0  0  0  0
 18 19  1  0  0  0  0
 15 19  1  0  0  0  0
 19 20  1  0  0  0  0
 20 21  1  0  0  0  0
 21 22  1  0  0  0  0
 22 23  1  0  0  0  0
 21 24  1  0  0  0  0
 24 25  1  0  0  0  0
 25 26  1  0  0  0  0
 26 27  1  0  0  0  0
 27 28  1  0  0  0  0
 21 28  1  0  0  0  0
M  END
>  <Catalog ID>
Z2760966296

>  <Plate_ID>
2026983-X50-01

>  <Well>
G11

>  <V, µL>
50

>  <Conc, mM>
10

>  <Formula>
C19H26N6O3

>  <MW>
386.4481

>  <Purity>
97.4

>  <PO>
5A-64168

>  <MW_salt>
0

>  <Stereochem.data>
Achiral

>  <Geometric.isomer>
None

>  <Chemical name>
3-(cyclopropylmethyl)-1-(9-{[4-(hydroxymethyl)oxan-4-yl]methyl}-9H-purin-6-yl)imidazolidin-4-one

>  <ClogP>
-0,441

>  <logS>
-2,32

>  <HBD>
1

>  <HBA>
7

>  <TPSA>
96,61

>  <RotBonds>
6

$$$$

  Mrv1925 04172511352D          

 19 21  0  0  0  0            999 V2000
    3.2789    2.0625    0.0000 N   0  0  0  0  0  0  0  0  0  0  0  0
    3.2789    1.2375    0.0000 C   0  0  0  0  0  0  0  0  0  0  0  0
    3.9934    0.8250    0.0000 N   0  0  0  0  0  0  0  0  0  0  0  0
    3.9934    0.0000    0.0000 C   0  0  0  0  0  0  0  0  0  0  0  0
    3.2789   -0.4125    0.0000 N   0  0  0  0  0  0  0  0  0  0  0  0
    2.5645    0.0000    0.0000 C   0  0  0  0  0  0  0  0  0  0  0  0
    2.5645    0.8250    0.0000 C   0  0  0  0  0  0  0  0  0  0  0  0
    1.7798    1.0799    0.0000 N   0  0  0  0  0  0  0  0  0  0  0  0
    1.2949    0.4125    0.0000 C   0  0  0  0  0  0  0  0  0  0  0  0
    0.4699    0.4125    0.0000 Br  0  0  0  0  0  0  0  0  0  0  0  0
    1.7798   -0.2549    0.0000 N   0  0  0  0  0  0  0  0  0  0  0  0
    1.5249   -1.0396    0.0000 C   0  0  0  0  0  0  0  0  0  0  0  0
    2.0098   -1.7070    0.0000 C   0  0  0  0  0  0  0  0  0  0  0  0
    1.5249   -2.3744    0.0000 C   0  0  0  0  0  0  0  0  0  0  0  0
    1.7798   -3.1591    0.0000 O   0  0  0  0  0  0  0  0  0  0  0  0
    0.7403   -2.1195    0.0000 C   0  0  0  0  0  0  0  0  0  0  0  0
    0.0728   -2.6044    0.0000 C   0  0  0  0  0  0  0  0  0  0  0  0
    0.1591   -3.4249    0.0000 O   0  0  0  0  0  0  0  0  0  0  0  0
    0.7403   -1.2945    0.0000 O   0  0  0  0  0  0  0  0  0  0  0  0
  1  2  1  0  0  0  0
  2  3  1  0  0  0  0
  3  4  2  0  0  0  0
  4  5  1  0  0  0  0
  5  6  2  0  0  0  0
  6  7  1  0  0  0  0
  2  7  2  0  0  0  0
  7  8  1  0  0  0  0
  8  9  2  0  0  0  0
  9 10  1  0  0  0  0
  9 11  1  0  0  0  0
  6 11  1  0  0  0  0
 11 12  1  0  0  0  0
 12 13  1  0  0  0  0
 13 14  1  0  0  0  0
 14 15  1  0  0  0  0
 14 16  1  0  0  0  0
 16 17  1  0  0  0  0
 17 18  1  0  0  0  0
 16 19  1  0  0  0  0
 12 19  1  0  0  0  0
M  END
>  <Catalog ID>
Z56777083

>  <Plate_ID>
2026983-X50-01

>  <Well>
H11

>  <V, µL>
50

>  <Conc, mM>
10

>  <Formula>
C10H12BrN5O3

>  <MW>
330.138

>  <Purity>
90.57

>  <PO>
5A-64168

>  <MW_salt>
0

>  <Stereochem.data>
Diastereomeric mixture

>  <Geometric.isomer>
None

>  <Chemical name>
5-(6-amino-8-bromo-9H-purin-9-yl)-2-(hydroxymethyl)oxolan-3-ol

>  <ClogP>
-0,76

>  <logS>
-3,09

>  <HBD>
3

>  <HBA>
7

>  <TPSA>
119,31

>  <RotBonds>
2

$$$$

  Mrv1925 04172511352D          

 16 16  0  0  0  0            999 V2000
    0.0000    0.0000    0.0000 Cl  0  0  0  0  0  0  0  0  0  0  0  0
    5.5036    1.3706    0.0000 O   0  0  0  0  0  0  0  0  0  0  0  0
    4.7892    0.9581    0.0000 C   0  0  0  0  0  0  0  0  0  0  0  0
    4.0747    1.3706    0.0000 O   0  0  0  0  0  0  0  0  0  0  0  0
    4.7892    0.1331    0.0000 C   0  0  0  0  0  0  0  0  0  0  0  0
    5.4566   -0.3518    0.0000 C   0  0  0  0  0  0  0  0  0  0  0  0
    5.2017   -1.1365    0.0000 C   0  0  0  0  0  0  0  0  0  0  0  0
    5.6866   -1.8039    0.0000 O   0  0  0  0  0  0  0  0  0  0  0  0
    4.3767   -1.1365    0.0000 C   0  0  0  0  0  0  0  0  0  0  0  0
    4.1217   -0.3518    0.0000 N   0  0  0  0  0  0  0  0  0  0  0  0
    3.3371   -0.0969    0.0000 C   0  0  0  0  0  0  0  0  0  0  0  0
    2.7240   -0.6489    0.0000 C   0  0  0  0  0  0  0  0  0  0  0  0
    1.9394   -0.3940    0.0000 C   0  0  0  0  0  0  0  0  0  0  0  0
    1.7679    0.4130    0.0000 N   0  0  0  0  0  0  0  0  0  0  0  0
    2.3810    0.9650    0.0000 C   0  0  0  0  0  0  0  0  0  0  0  0
    3.1656    0.7101    0.0000 N   0  0  0  0  0  0  0  0  0  0  0  0
  2  3  2  0  0  0  0
  3  4  1  0  0  0  0
  3  5  1  0  0  0  0
  5  6  1  0  0  0  0
  6  7  1  0  0  0  0
  7  8  1  0  0  0  0
  7  9  1  0  0  0  0
  9 10  1  0  0  0  0
  5 10  1  0  0  0  0
 10 11  1  0  0  0  0
 11 12  2  0  0  0  0
 12 13  1  0  0  0  0
 13 14  2  0  0  0  0
 14 15  1  0  0  0  0
 15 16  2  0  0  0  0
 11 16  1  0  0  0  0
M  END
>  <Catalog ID>
Z2587626535

>  <Plate_ID>
2026983-X50-02

>  <Well>
A02

>  <V, µL>
50

>  <Conc, mM>
10

>  <Formula>
C9H12ClN3O3

>  <MW>
245.6629

>  <Purity>
100

>  <PO>
5A-64168

>  <Salt smiles>
Cl

>  <Salt_name>
Hydrochloric Acid

>  <Salt_ratio>
1

>  <MW_salt>
36.4609

>  <Stereochem.data>
Diastereomeric mixture

>  <Geometric.isomer>
Unequal mixture of geometric isomers

>  <Chemical name>
4-hydroxy-1-(pyrimidin-4-yl)pyrrolidine-2-carboxylic acid hydrochloride

>  <ClogP>
-1,139

>  <logS>
-2,019

>  <HBD>
2

>  <HBA>
6

>  <TPSA>
86,55

>  <RotBonds>
2

$$$$

  Mrv1925 04172511352D          

 20 21  0  0  0  0            999 V2000
   -2.1434   -5.3625    0.0000 O   0  0  0  0  0  0  0  0  0  0  0  0
   -1.4289   -4.9500    0.0000 C   0  0  0  0  0  0  0  0  0  0  0  0
   -1.4289   -4.1250    0.0000 N   0  0  0  0  0  0  0  0  0  0  0  0
   -0.7145   -3.7125    0.0000 C   0  0  0  0  0  0  0  0  0  0  0  0
   -0.7145   -2.8875    0.0000 O   0  0  0  0  0  0  0  0  0  0  0  0
    0.0000   -4.1250    0.0000 N   0  0  0  0  0  0  0  0  0  0  0  0
    0.0000   -4.9500    0.0000 C   0  0  0  0  0  0  0  0  0  0  0  0
   -0.7145   -5.3625    0.0000 C   0  0  0  0  0  0  0  0  0  0  0  0
   -0.7145   -6.1875    0.0000 C   0  0  0  0  0  0  0  0  0  0  0  0
   -1.4289   -6.6000    0.0000 C   0  0  0  0  0  0  0  0  0  0  0  0
   -1.4289   -7.4250    0.0000 C   0  0  0  0  0  0  0  0  0  0  0  0
   -2.1434   -7.8375    0.0000 C   0  0  0  0  0  0  0  0  0  0  0  0
   -2.8579   -7.4250    0.0000 C   0  0  0  0  0  0  0  0  0  0  0  0
   -2.8579   -6.6000    0.0000 C   0  0  0  0  0  0  0  0  0  0  0  0
   -2.1434   -6.1875    0.0000 C   0  0  0  0  0  0  0  0  0  0  0  0
    0.7145   -3.7125    0.0000 C   0  0  0  0  0  0  0  0  0  0  0  0
    1.4289   -4.1250    0.0000 O   0  0  0  0  0  0  0  0  0  0  0  0
    2.1434   -3.7125    0.0000 C   0  0  0  0  0  0  0  0  0  0  0  0
    2.8579   -4.1250    0.0000 C   0  0  0  0  0  0  0  0  0  0  0  0
    3.5724   -3.7125    0.0000 O   0  0  0  0  0  0  0  0  0  0  0  0
  1  2  2  0  0  0  0
  2  3  1  0  0  0  0
  3  4  1  0  0  0  0
  4  5  2  0  0  0  0
  4  6  1  0  0  0  0
  6  7  1  0  0  0  0
  7  8  2  0  0  0  0
  2  8  1  0  0  0  0
  8  9  1  0  0  0  0
  9 10  1  0  0  0  0
 10 11  1  0  0  0  0
 11 12  2  0  0  0  0
 12 13  1  0  0  0  0
 13 14  2  0  0  0  0
 14 15  1  0  0  0  0
 10 15  2  0  0  0  0
  6 16  1  0  0  0  0
 16 17  1  0  0  0  0
 17 18  1  0  0  0  0
 18 19  1  0  0  0  0
 19 20  1  0  0  0  0
M  END
>  <Catalog ID>
Z3212792438

>  <Plate_ID>
2026983-X50-02

>  <Well>
B02

>  <V, µL>
50

>  <Conc, mM>
10

>  <Formula>
C14H16N2O4

>  <MW>
276.2878

>  <Purity>
100

>  <PO>
5A-64168

>  <MW_salt>
0

>  <Stereochem.data>
Achiral

>  <Geometric.isomer>
None

>  <Chemical name>
5-benzyl-1-[(2-hydroxyethoxy)methyl]-1,2,3,4-tetrahydropyrimidine-2,4-dione

>  <ClogP>
0,373

>  <logS>
-1,984

>  <HBD>
2

>  <HBA>
4

>  <TPSA>
78,87

>  <RotBonds>
6

$$$$

  Mrv1925 04172511352D          

 15 16  0  0  1  0            999 V2000
    1.2564   -0.1802    0.0000 C   0  0  0  0  0  0  0  0  0  0  0  0
    1.2564   -1.0052    0.0000 N   0  0  0  0  0  0  0  0  0  0  0  0
    1.9239   -1.4901    0.0000 N   0  0  0  0  0  0  0  0  0  0  0  0
    1.6689   -2.2748    0.0000 N   0  0  0  0  0  0  0  0  0  0  0  0
    0.8439   -2.2748    0.0000 N   0  0  0  0  0  0  0  0  0  0  0  0
    0.5890   -1.4901    0.0000 C   0  0  0  0  0  0  0  0  0  0  0  0
   -0.1956   -1.2352    0.0000 N   0  0  0  0  0  0  0  0  0  0  0  0
   -0.8631   -1.7201    0.0000 C   0  0  0  0  0  0  0  0  0  0  0  0
   -1.5305   -1.2352    0.0000 C   0  0  2  0  0  0  0  0  0  0  0  0
   -2.3151   -1.4901    0.0000 O   0  0  0  0  0  0  0  0  0  0  0  0
   -1.2756   -0.4506    0.0000 C   0  0  0  0  0  0  0  0  0  0  0  0
   -0.4506   -0.4506    0.0000 C   0  0  1  0  0  0  0  0  0  0  0  0
    0.0343    0.2169    0.0000 C   0  0  0  0  0  0  0  0  0  0  0  0
    0.8548    0.1306    0.0000 O   0  0  0  0  0  0  0  0  0  0  0  0
   -0.3012    0.9705    0.0000 O   0  0  0  0  0  0  0  0  0  0  0  0
  1  2  1  0  0  0  0
  2  3  1  0  0  0  0
  3  4  2  0  0  0  0
  4  5  1  0  0  0  0
  5  6  2  0  0  0  0
  2  6  1  0  0  0  0
  6  7  1  0  0  0  0
  7  8  1  0  0  0  0
  9  8  1  0  0  0  0
  9 10  1  6  0  0  0
  9 11  1  0  0  0  0
 12 11  1  0  0  0  0
 12  7  1  0  0  0  0
 12 13  1  1  0  0  0
 13 14  2  0  0  0  0
 13 15  1  0  0  0  0
M  END
>  <Catalog ID>
Z2510971309

>  <Plate_ID>
2026983-X50-02

>  <Well>
C02

>  <V, µL>
50

>  <Conc, mM>
10

>  <Formula>
C7H11N5O3

>  <MW>
213.1939

>  <Purity>
95

>  <PO>
5A-64168

>  <MW_salt>
0

>  <Stereochem.data>
Single known enantiomer

>  <Geometric.isomer>
None

>  <Chemical name>
(2S,4R)-4-hydroxy-1-(1-methyl-1H-1,2,3,4-tetrazol-5-yl)pyrrolidine-2-carboxylic acid

>  <ClogP>
-1,287

>  <logS>
-0,394

>  <HBD>
2

>  <HBA>
7

>  <TPSA>
104,37

>  <RotBonds>
2

$$$$

  Mrv1925 04172511352D          

 14 13  0  0  0  0            999 V2000
    0.0000    0.0000    0.0000 Cl  0  0  0  0  0  0  0  0  0  0  0  0
    2.0036    0.0000    0.0000 Cl  0  0  0  0  0  0  0  0  0  0  0  0
    0.5855   -3.7695    0.0000 O   0  0  0  0  0  0  0  0  0  0  0  0
    0.0334   -4.3826    0.0000 C   0  0  0  0  0  0  0  0  0  0  0  0
   -0.5186   -3.7695    0.0000 C   0  0  0  0  0  0  0  0  0  0  0  0
   -0.2637   -2.9849    0.0000 N   0  0  0  0  0  0  0  0  0  0  0  0
   -0.7486   -2.3174    0.0000 C   0  0  0  0  0  0  0  0  0  0  0  0
   -0.2637   -1.6500    0.0000 C   0  0  0  0  0  0  0  0  0  0  0  0
    0.5210   -1.9049    0.0000 N   0  0  0  0  0  0  0  0  0  0  0  0
    0.5210   -2.7299    0.0000 N   0  0  0  0  0  0  0  0  0  0  0  0
    0.7009   -4.8675    0.0000 C   0  0  0  0  0  0  0  0  0  0  0  0
    0.4459   -5.6521    0.0000 C   0  0  0  0  0  0  0  0  0  0  0  0
   -0.3791   -5.6521    0.0000 N   0  0  0  0  0  0  0  0  0  0  0  0
   -0.6340   -4.8675    0.0000 C   0  0  0  0  0  0  0  0  0  0  0  0
  3  4  1  0  0  0  0
  4  5  1  0  0  0  0
  5  6  1  0  0  0  0
  6  7  1  0  0  0  0
  7  8  2  0  0  0  0
  8  9  1  0  0  0  0
  9 10  2  0  0  0  0
  6 10  1  0  0  0  0
  4 11  1  0  0  0  0
 11 12  1  0  0  0  0
 12 13  1  0  0  0  0
 13 14  1  0  0  0  0
  4 14  1  0  0  0  0
M  END
>  <Catalog ID>
Z2472856664

>  <Plate_ID>
2026983-X50-02

>  <Well>
D02

>  <V, µL>
50

>  <Conc, mM>
10

>  <Formula>
C7H14Cl2N4O

>  <MW>
241.1183

>  <Purity>
95

>  <PO>
5A-64168

>  <Salt smiles>
Cl

>  <Salt_name>
Hydrochloric Acid

>  <Salt_ratio>
2

>  <MW_salt>
36.4609

>  <Stereochem.data>
Racemic or presumed racemic or meso

>  <Geometric.isomer>
None

>  <Chemical name>
3-[(1H-1,2,3-triazol-1-yl)methyl]pyrrolidin-3-ol dihydrochloride

>  <ClogP>
-1,296

>  <logS>
-0,574

>  <HBD>
2

>  <HBA>
4

>  <TPSA>
62,97

>  <RotBonds>
2

$$$$

  Mrv1925 04172511352D          

 16 17  0  0  1  0            999 V2000
    0.7145    6.7661    0.0000 N   0  0  0  0  0  0  0  0  0  0  0  0
    0.7145    5.9411    0.0000 C   0  0  0  0  0  0  0  0  0  0  0  0
    1.4289    5.5286    0.0000 N   0  0  0  0  0  0  0  0  0  0  0  0
    1.4289    4.7036    0.0000 C   0  0  0  0  0  0  0  0  0  0  0  0
    2.1434    4.2911    0.0000 O   0  0  0  0  0  0  0  0  0  0  0  0
    0.7145    4.2911    0.0000 N   0  0  0  0  0  0  0  0  0  0  0  0
    0.0000    4.7036    0.0000 C   0  0  0  0  0  0  0  0  0  0  0  0
    0.0000    5.5286    0.0000 C   0  0  0  0  0  0  0  0  0  0  0  0
   -0.7145    5.9411    0.0000 F   0  0  0  0  0  0  0  0  0  0  0  0
    0.7145    3.4661    0.0000 C   0  0  2  0  0  0  0  0  0  0  0  0
    1.3819    2.9812    0.0000 C   0  0  0  0  0  0  0  0  0  0  0  0
    1.1270    2.1965    0.0000 S   0  0  0  0  0  0  0  0  0  0  0  0
    0.3020    2.1965    0.0000 C   0  0  2  0  0  0  0  0  0  0  0  0
   -0.1830    1.5291    0.0000 C   0  0  0  0  0  0  0  0  0  0  0  0
    0.1526    0.7754    0.0000 O   0  0  0  0  0  0  0  0  0  0  0  0
    0.0470    2.9812    0.0000 O   0  0  0  0  0  0  0  0  0  0  0  0
  1  2  1  0  0  0  0
  2  3  2  0  0  0  0
  3  4  1  0  0  0  0
  4  5  2  0  0  0  0
  4  6  1  0  0  0  0
  6  7  1  0  0  0  0
  7  8  2  0  0  0  0
  2  8  1  0  0  0  0
  8  9  1  0  0  0  0
 10  6  1  6  0  0  0
 10 11  1  0  0  0  0
 11 12  1  0  0  0  0
 13 12  1  0  0  0  0
 13 14  1  6  0  0  0
 14 15  1  0  0  0  0
 13 16  1  0  0  0  0
 10 16  1  0  0  0  0
M  END
>  <Catalog ID>
Z1521553474

>  <Plate_ID>
2026983-X50-02

>  <Well>
E02

>  <V, µL>
50

>  <Conc, mM>
10

>  <Formula>
C8H10FN3O3S

>  <MW>
247.2467

>  <Purity>
90

>  <PO>
5A-64168

>  <MW_salt>
0

>  <Stereochem.data>
Single known enantiomer

>  <Geometric.isomer>
None

>  <Chemical name>
4-amino-5-fluoro-1-[(2R,5S)-2-(hydroxymethyl)-1,3-oxathiolan-5-yl]-1,2-dihydropyrimidin-2-one

>  <ClogP>
-1,291

>  <logS>
-1,36

>  <HBD>
2

>  <HBA>
5

>  <TPSA>
88,15

>  <RotBonds>
2

$$$$

  Mrv1925 04172511352D          

 20 22  0  0  1  0            999 V2000
    3.2789    2.0625    0.0000 N   0  0  0  0  0  0  0  0  0  0  0  0
    3.2789    1.2375    0.0000 C   0  0  0  0  0  0  0  0  0  0  0  0
    3.9934    0.8250    0.0000 N   0  0  0  0  0  0  0  0  0  0  0  0
    3.9934    0.0000    0.0000 C   0  0  0  0  0  0  0  0  0  0  0  0
    4.7079   -0.4125    0.0000 F   0  0  0  0  0  0  0  0  0  0  0  0
    3.2789   -0.4125    0.0000 N   0  0  0  0  0  0  0  0  0  0  0  0
    2.5645    0.0000    0.0000 C   0  0  0  0  0  0  0  0  0  0  0  0
    2.5645    0.8250    0.0000 C   0  0  0  0  0  0  0  0  0  0  0  0
    1.7798    1.0799    0.0000 N   0  0  0  0  0  0  0  0  0  0  0  0
    1.2949    0.4125    0.0000 C   0  0  0  0  0  0  0  0  0  0  0  0
    1.7798   -0.2549    0.0000 N   0  0  0  0  0  0  0  0  0  0  0  0
    1.5249   -1.0396    0.0000 C   0  0  2  0  0  0  0  0  0  0  0  0
    2.0098   -1.7070    0.0000 O   0  0  0  0  0  0  0  0  0  0  0  0
    1.5249   -2.3744    0.0000 C   0  0  2  0  0  0  0  0  0  0  0  0
    1.7798   -3.1591    0.0000 C   0  0  0  0  0  0  0  0  0  0  0  0
    2.5868   -3.3306    0.0000 O   0  0  0  0  0  0  0  0  0  0  0  0
    0.7403   -2.1195    0.0000 C   0  0  1  0  0  0  0  0  0  0  0  0
    0.0728   -2.6044    0.0000 O   0  0  0  0  0  0  0  0  0  0  0  0
    0.7403   -1.2945    0.0000 C   0  0  2  0  0  0  0  0  0  0  0  0
    0.0728   -0.8096    0.0000 O   0  0  0  0  0  0  0  0  0  0  0  0
  1  2  1  0  0  0  0
  2  3  1  0  0  0  0
  3  4  2  0  0  0  0
  4  5  1  0  0  0  0
  4  6  1  0  0  0  0
  6  7  2  0  0  0  0
  7  8  1  0  0  0  0
  2  8  2  0  0  0  0
  8  9  1  0  0  0  0
  9 10  2  0  0  0  0
 10 11  1  0  0  0  0
  7 11  1  0  0  0  0
 12 11  1  6  0  0  0
 12 13  1  0  0  0  0
 14 13  1  0  0  0  0
 14 15  1  6  0  0  0
 15 16  1  0  0  0  0
 17 14  1  0  0  0  0
 17 18  1  1  0  0  0
 17 19  1  0  0  0  0
 19 12  1  0  0  0  0
 19 20  1  6  0  0  0
M  END
>  <Catalog ID>
Z756440078

>  <Plate_ID>
2026983-X50-02

>  <Well>
F02

>  <V, µL>
50

>  <Conc, mM>
10

>  <Formula>
C10H12FN5O4

>  <MW>
285.2318

>  <Purity>
100

>  <PO>
5A-64168

>  <MW_salt>
0

>  <Stereochem.data>
Single known enantiomer

>  <Geometric.isomer>
None

>  <Chemical name>
(2R,3S,4S,5R)-2-(6-amino-2-fluoro-9H-purin-9-yl)-5-(hydroxymethyl)oxolane-3,4-diol

>  <ClogP>
-2,005

>  <logS>
-2,33

>  <HBD>
4

>  <HBA>
8

>  <TPSA>
139,54

>  <RotBonds>
2

$$$$

  Mrv1925 04172511352D          

 11 12  0  0  0  0            999 V2000
    1.0953   -0.0756    0.0000 O   0  0  0  0  0  0  0  0  0  0  0  0
    1.6473   -0.6887    0.0000 C   0  0  0  0  0  0  0  0  0  0  0  0
    2.3148   -1.1736    0.0000 C   0  0  0  0  0  0  0  0  0  0  0  0
    2.0598   -1.9582    0.0000 C   0  0  0  0  0  0  0  0  0  0  0  0
    1.2348   -1.9582    0.0000 N   0  0  0  0  0  0  0  0  0  0  0  0
    0.9799   -1.1736    0.0000 C   0  0  0  0  0  0  0  0  0  0  0  0
    2.1994   -0.0756    0.0000 C   0  0  0  0  0  0  0  0  0  0  0  0
    2.0278    0.7314    0.0000 C   0  0  0  0  0  0  0  0  0  0  0  0
    2.7423    1.1439    0.0000 C   0  0  0  0  0  0  0  0  0  0  0  0
    3.3554    0.5919    0.0000 N   0  0  0  0  0  0  0  0  0  0  0  0
    3.0198   -0.1618    0.0000 N   0  0  0  0  0  0  0  0  0  0  0  0
  1  2  1  0  0  0  0
  2  3  1  0  0  0  0
  3  4  1  0  0  0  0
  4  5  1  0  0  0  0
  5  6  1  0  0  0  0
  2  6  1  0  0  0  0
  2  7  1  0  0  0  0
  7  8  2  0  0  0  0
  8  9  1  0  0  0  0
  9 10  2  0  0  0  0
 10 11  1  0  0  0  0
  7 11  1  0  0  0  0
M  END
>  <Catalog ID>
Z1255420592

>  <Plate_ID>
2026983-X50-02

>  <Well>
G02

>  <V, µL>
50

>  <Conc, mM>
10

>  <Formula>
C7H11N3O

>  <MW>
153.1817

>  <Purity>
95

>  <PO>
5A-64168

>  <MW_salt>
0

>  <Stereochem.data>
Racemic or presumed racemic or meso

>  <Geometric.isomer>
None

>  <Chemical name>
3-(1H-pyrazol-5-yl)pyrrolidin-3-ol

>  <ClogP>
-1,039

>  <logS>
-0,085

>  <HBD>
3

>  <HBA>
3

>  <TPSA>
60,94

>  <RotBonds>
1

$$$$

  Mrv1925 04172511352D          

 17 17  0  0  0  0            999 V2000
   -2.5204   -3.2369    0.0000 Li  0  3  0  0  0  0  0  0  0  0  0  0
    0.0179   -0.6474    0.0000 C   0  0  0  0  0  0  0  0  0  0  0  0
    0.0179   -1.4724    0.0000 N   0  0  0  0  0  0  0  0  0  0  0  0
    0.6854   -1.9573    0.0000 C   0  0  0  0  0  0  0  0  0  0  0  0
    0.4304   -2.7419    0.0000 C   0  0  0  0  0  0  0  0  0  0  0  0
    0.9154   -3.4094    0.0000 C   0  0  0  0  0  0  0  0  0  0  0  0
    1.7358   -3.3231    0.0000 N   0  0  0  0  0  0  0  0  0  0  0  0
    2.1483   -2.6087    0.0000 C   0  0  0  0  0  0  0  0  0  0  0  0
    2.9553   -2.7802    0.0000 C   0  0  0  0  0  0  0  0  0  0  0  0
    3.0416   -3.6007    0.0000 C   0  0  0  0  0  0  0  0  0  0  0  0
    3.7560   -4.0132    0.0000 O   0  0  0  0  0  0  0  0  0  0  0  0
    2.2879   -3.9362    0.0000 C   0  0  0  0  0  0  0  0  0  0  0  0
   -0.3946   -2.7419    0.0000 C   0  0  0  0  0  0  0  0  0  0  0  0
   -0.6495   -1.9573    0.0000 N   0  0  0  0  0  0  0  0  0  0  0  0
   -0.8795   -3.4094    0.0000 C   0  0  0  0  0  0  0  0  0  0  0  0
   -1.7000   -3.3231    0.0000 O   0  5  0  0  0  0  0  0  0  0  0  0
   -0.5439   -4.1631    0.0000 O   0  0  0  0  0  0  0  0  0  0  0  0
  2  3  1  0  0  0  0
  3  4  1  0  0  0  0
  4  5  2  0  0  0  0
  5  6  1  0  0  0  0
  6  7  1  0  0  0  0
  7  8  1  0  0  0  0
  8  9  1  0  0  0  0
  9 10  1  0  0  0  0
 10 11  1  0  0  0  0
 10 12  1  0  0  0  0
  7 12  1  0  0  0  0
  5 13  1  0  0  0  0
 13 14  2  0  0  0  0
  3 14  1  0  0  0  0
 13 15  1  0  0  0  0
 15 16  1  0  0  0  0
 15 17  2  0  0  0  0
M  CHG  2   1   1  16  -1
M  END
>  <Catalog ID>
Z3016341160

>  <Plate_ID>
2026983-X50-02

>  <Well>
H02

>  <V, µL>
50

>  <Conc, mM>
10

>  <Formula>
C10H14LiN3O3

>  <MW>
231.1775

>  <Purity>
100

>  <PO>
5A-64168

>  <Salt smiles>
[Li+]

>  <Salt_name>
Lithium Ion

>  <Salt_ratio>
1

>  <MW_salt>
6.941

>  <Stereochem.data>
Racemic or presumed racemic or meso

>  <Geometric.isomer>
None

>  <Chemical name>
lithium(1+) 4-[(3-hydroxypyrrolidin-1-yl)methyl]-1-methyl-1H-pyrazole-3-carboxylate

>  <ClogP>
-4,786

>  <HBD>
1

>  <HBA>
5

>  <TPSA>
81,42

>  <RotBonds>
3

$$$$

  Mrv1925 04172511352D          

 19 20  0  0  0  0            999 V2000
    0.0000    0.0000    0.0000 Cl  0  0  0  0  0  0  0  0  0  0  0  0
    1.8046    1.2803    0.0000 O   0  0  0  0  0  0  0  0  0  0  0  0
    2.4177    0.7283    0.0000 C   0  0  0  0  0  0  0  0  0  0  0  0
    2.2461   -0.0787    0.0000 O   0  0  0  0  0  0  0  0  0  0  0  0
    3.2023    0.9832    0.0000 C   0  0  0  0  0  0  0  0  0  0  0  0
    3.4572    1.7678    0.0000 C   0  0  0  0  0  0  0  0  0  0  0  0
    4.2822    1.7678    0.0000 C   0  0  0  0  0  0  0  0  0  0  0  0
    4.7672    2.4353    0.0000 O   0  0  0  0  0  0  0  0  0  0  0  0
    4.5372    0.9832    0.0000 C   0  0  0  0  0  0  0  0  0  0  0  0
    3.8697    0.4983    0.0000 N   0  0  0  0  0  0  0  0  0  0  0  0
    3.8697   -0.3267    0.0000 C   0  0  0  0  0  0  0  0  0  0  0  0
    4.5842   -0.7392    0.0000 N   0  0  0  0  0  0  0  0  0  0  0  0
    4.5842   -1.5642    0.0000 C   0  0  0  0  0  0  0  0  0  0  0  0
    3.8697   -1.9767    0.0000 N   0  0  0  0  0  0  0  0  0  0  0  0
    3.1553   -1.5642    0.0000 C   0  0  0  0  0  0  0  0  0  0  0  0
    2.3706   -1.8192    0.0000 N   0  0  0  0  0  0  0  0  0  0  0  0
    1.8857   -1.1517    0.0000 C   0  0  0  0  0  0  0  0  0  0  0  0
    2.3706   -0.4843    0.0000 N   0  0  0  0  0  0  0  0  0  0  0  0
    3.1553   -0.7392    0.0000 C   0  0  0  0  0  0  0  0  0  0  0  0
  2  3  2  0  0  0  0
  3  4  1  0  0  0  0
  3  5  1  0  0  0  0
  5  6  1  0  0  0  0
  6  7  1  0  0  0  0
  7  8  1  0  0  0  0
  7  9  1  0  0  0  0
  9 10  1  0  0  0  0
  5 10  1  0  0  0  0
 10 11  1  0  0  0  0
 11 12  1  0  0  0  0
 12 13  2  0  0  0  0
 13 14  1  0  0  0  0
 14 15  2  0  0  0  0
 15 16  1  0  0  0  0
 16 17  2  0  0  0  0
 17 18  1  0  0  0  0
 18 19  1  0  0  0  0
 11 19  2  0  0  0  0
 15 19  1  0  0  0  0
M  END
>  <Catalog ID>
Z2489072449

>  <Plate_ID>
2026983-X50-02

>  <Well>
A03

>  <V, µL>
50

>  <Conc, mM>
10

>  <Formula>
C10H12ClN5O3

>  <MW>
285.687

>  <Purity>
100

>  <PO>
5A-64168

>  <Salt smiles>
Cl

>  <Salt_name>
Hydrochloric Acid

>  <Salt_ratio>
1

>  <MW_salt>
36.4609

>  <Stereochem.data>
Diastereomeric mixture

>  <Geometric.isomer>
Unequal mixture of geometric isomers

>  <Chemical name>
4-hydroxy-1-(7H-purin-6-yl)pyrrolidine-2-carboxylic acid hydrochloride

>  <ClogP>
-0,995

>  <logS>
-3,058

>  <HBD>
3

>  <HBA>
7

>  <TPSA>
115,23

>  <RotBonds>
2

$$$$

  Mrv1925 04172511352D          

 13 14  0  0  1  0            999 V2000
    1.9709    0.2323    0.0000 C   0  0  0  0  0  0  0  0  0  0  0  0
    1.2564   -0.1802    0.0000 C   0  0  0  0  0  0  0  0  0  0  0  0
    1.2564   -1.0052    0.0000 C   0  0  0  0  0  0  0  0  0  0  0  0
    1.9239   -1.4901    0.0000 N   0  0  0  0  0  0  0  0  0  0  0  0
    1.6689   -2.2748    0.0000 N   0  0  0  0  0  0  0  0  0  0  0  0
    0.8439   -2.2748    0.0000 C   0  0  0  0  0  0  0  0  0  0  0  0
    0.5890   -1.4901    0.0000 O   0  0  0  0  0  0  0  0  0  0  0  0
    0.3590   -2.9422    0.0000 C   0  0  1  0  0  0  0  0  0  0  0  0
    0.6139   -3.7268    0.0000 C   0  0  0  0  0  0  0  0  0  0  0  0
   -0.0535   -4.2117    0.0000 C   0  0  1  0  0  0  0  0  0  0  0  0
   -0.0535   -5.0367    0.0000 O   0  0  0  0  0  0  0  0  0  0  0  0
   -0.7209   -3.7268    0.0000 C   0  0  0  0  0  0  0  0  0  0  0  0
   -0.4660   -2.9422    0.0000 N   0  0  0  0  0  0  0  0  0  0  0  0
  1  2  1  0  0  0  0
  2  3  1  0  0  0  0
  3  4  2  0  0  0  0
  4  5  1  0  0  0  0
  5  6  2  0  0  0  0
  6  7  1  0  0  0  0
  3  7  1  0  0  0  0
  8  6  1  1  0  0  0
  8  9  1  0  0  0  0
 10  9  1  0  0  0  0
 10 11  1  1  0  0  0
 10 12  1  0  0  0  0
 12 13  1  0  0  0  0
  8 13  1  0  0  0  0
M  END
>  <Catalog ID>
Z1753047894

>  <Plate_ID>
2026983-X50-02

>  <Well>
B03

>  <V, µL>
50

>  <Conc, mM>
10

>  <Formula>
C8H13N3O2

>  <MW>
183.2077

>  <Purity>
95

>  <PO>
5A-64168

>  <MW_salt>
0

>  <Stereochem.data>
Single known enantiomer

>  <Geometric.isomer>
None

>  <Chemical name>
(3R,5R)-5-(5-ethyl-1,3,4-oxadiazol-2-yl)pyrrolidin-3-ol

>  <ClogP>
-2,119

>  <logS>
-0,08

>  <HBD>
2

>  <HBA>
4

>  <TPSA>
71,18

>  <RotBonds>
2

$$$$

  Mrv1925 04172511352D          

 16 16  0  0  1  0            999 V2000
    1.4469    0.1776    0.0000 K   0  3  0  0  0  0  0  0  0  0  0  0
    0.7324   -0.2349    0.0000 O   0  5  0  0  0  0  0  0  0  0  0  0
    0.0179   -0.6474    0.0000 C   0  0  0  0  0  0  0  0  0  0  0  0
   -0.6965   -0.2349    0.0000 O   0  0  0  0  0  0  0  0  0  0  0  0
    0.0179   -1.4724    0.0000 C   0  0  0  0  0  0  0  0  0  0  0  0
    0.6854   -1.9573    0.0000 C   0  0  0  0  0  0  0  0  0  0  0  0
    0.4304   -2.7419    0.0000 O   0  0  0  0  0  0  0  0  0  0  0  0
   -0.3946   -2.7419    0.0000 C   0  0  0  0  0  0  0  0  0  0  0  0
   -0.8795   -3.4094    0.0000 C   0  0  0  0  0  0  0  0  0  0  0  0
   -0.5439   -4.1631    0.0000 N   0  0  0  0  0  0  0  0  0  0  0  0
    0.2630   -4.3346    0.0000 C   0  0  0  0  0  0  0  0  0  0  0  0
    0.3493   -5.1551    0.0000 C   0  0  0  0  0  0  0  0  0  0  0  0
   -0.4044   -5.4906    0.0000 C   0  0  2  0  0  0  0  0  0  0  0  0
   -0.5759   -6.2976    0.0000 O   0  0  0  0  0  0  0  0  0  0  0  0
   -0.9564   -4.8775    0.0000 C   0  0  0  0  0  0  0  0  0  0  0  0
   -0.6495   -1.9573    0.0000 N   0  0  0  0  0  0  0  0  0  0  0  0
  2  3  1  0  0  0  0
  3  4  2  0  0  0  0
  3  5  1  0  0  0  0
  5  6  2  0  0  0  0
  6  7  1  0  0  0  0
  7  8  1  0  0  0  0
  8  9  1  0  0  0  0
  9 10  1  0  0  0  0
 10 11  1  0  0  0  0
 11 12  1  0  0  0  0
 13 12  1  0  0  0  0
 13 14  1  6  0  0  0
 13 15  1  0  0  0  0
 10 15  1  0  0  0  0
  8 16  2  0  0  0  0
  5 16  1  0  0  0  0
M  CHG  2   1   1   2  -1
M  END
>  <Catalog ID>
Z2896887363

>  <Plate_ID>
2026983-X50-02

>  <Well>
C03

>  <V, µL>
50

>  <Conc, mM>
10

>  <Formula>
C9H11KN2O4

>  <MW>
250.2929

>  <Purity>
100

>  <PO>
5A-64168

>  <Salt smiles>
[K+]

>  <Salt_name>
Potassium Ion

>  <Salt_ratio>
1

>  <MW_salt>
39.0983

>  <Stereochem.data>
Single known enantiomer

>  <Geometric.isomer>
None

>  <Chemical name>
potassium 2-{[(3S)-3-hydroxypyrrolidin-1-yl]methyl}-1,3-oxazole-4-carboxylate

>  <ClogP>
-5,222

>  <HBD>
1

>  <HBA>
5

>  <TPSA>
89,63

>  <RotBonds>
3

$$$$

  Mrv1925 04172511352D          

 26 26  0  0  0  0            999 V2000
    0.0000    0.0000    0.0000 Cl  0  0  0  0  0  0  0  0  0  0  0  0
    2.0036    0.0000    0.0000 Cl  0  0  0  0  0  0  0  0  0  0  0  0
   -0.5313   -5.9162    0.0000 O   0  0  0  0  0  0  0  0  0  0  0  0
   -1.0833   -6.5293    0.0000 C   0  0  0  0  0  0  0  0  0  0  0  0
   -1.6354   -5.9162    0.0000 C   0  0  0  0  0  0  0  0  0  0  0  0
   -1.3804   -5.1315    0.0000 N   0  0  0  0  0  0  0  0  0  0  0  0
   -1.9324   -4.5184    0.0000 C   0  0  0  0  0  0  0  0  0  0  0  0
   -1.6775   -3.7338    0.0000 C   0  0  0  0  0  0  0  0  0  0  0  0
   -0.8705   -3.5623    0.0000 C   0  0  0  0  0  0  0  0  0  0  0  0
   -0.3185   -4.1754    0.0000 C   0  0  0  0  0  0  0  0  0  0  0  0
   -0.5734   -4.9600    0.0000 C   0  0  0  0  0  0  0  0  0  0  0  0
   -0.6156   -2.7777    0.0000 O   0  0  0  0  0  0  0  0  0  0  0  0
    0.1914   -2.6061    0.0000 C   0  0  0  0  0  0  0  0  0  0  0  0
    0.4463   -1.8215    0.0000 C   0  0  0  0  0  0  0  0  0  0  0  0
    1.2533   -1.6500    0.0000 C   0  0  0  0  0  0  0  0  0  0  0  0
    1.8053   -2.2631    0.0000 C   0  0  0  0  0  0  0  0  0  0  0  0
    1.5504   -3.0477    0.0000 C   0  0  0  0  0  0  0  0  0  0  0  0
    0.7434   -3.2192    0.0000 C   0  0  0  0  0  0  0  0  0  0  0  0
    2.1024   -3.6608    0.0000 C   0  0  0  0  0  0  0  0  0  0  0  0
    2.6544   -4.2739    0.0000 F   0  0  0  0  0  0  0  0  0  0  0  0
    2.7155   -3.1088    0.0000 F   0  0  0  0  0  0  0  0  0  0  0  0
    1.4893   -4.2128    0.0000 F   0  0  0  0  0  0  0  0  0  0  0  0
   -0.4159   -7.0142    0.0000 C   0  0  0  0  0  0  0  0  0  0  0  0
   -0.6708   -7.7988    0.0000 C   0  0  0  0  0  0  0  0  0  0  0  0
   -1.4958   -7.7988    0.0000 N   0  0  0  0  0  0  0  0  0  0  0  0
   -1.7508   -7.0142    0.0000 C   0  0  0  0  0  0  0  0  0  0  0  0
  3  4  1  0  0  0  0
  4  5  1  0  0  0  0
  5  6  1  0  0  0  0
  6  7  1  0  0  0  0
  7  8  1  0  0  0  0
  8  9  1  0  0  0  0
  9 10  1  0  0  0  0
 10 11  1  0  0  0  0
  6 11  1  0  0  0  0
  9 12  1  0  0  0  0
 12 13  1  0  0  0  0
 13 14  1  0  0  0  0
 14 15  2  0  0  0  0
 15 16  1  0  0  0  0
 16 17  2  0  0  0  0
 17 18  1  0  0  0  0
 13 18  2  0  0  0  0
 17 19  1  0  0  0  0
 19 20  1  0  0  0  0
 19 21  1  0  0  0  0
 19 22  1  0  0  0  0
  4 23  1  0  0  0  0
 23 24  1  0  0  0  0
 24 25  1  0  0  0  0
 25 26  1  0  0  0  0
  4 26  1  0  0  0  0
M  END
>  <Catalog ID>
Z3052952334

>  <Plate_ID>
2026983-X50-02

>  <Well>
D03

>  <V, µL>
50

>  <Conc, mM>
10

>  <Formula>
C17H25Cl2F3N2O2

>  <MW>
417.2938

>  <Purity>
100

>  <PO>
5A-64168

>  <Salt smiles>
Cl

>  <Salt_name>
Hydrochloric Acid

>  <Salt_ratio>
2

>  <MW_salt>
36.4609

>  <Stereochem.data>
Racemic or presumed racemic or meso

>  <Geometric.isomer>
None

>  <Chemical name>
3-({4-[3-(trifluoromethyl)phenoxy]piperidin-1-yl}methyl)pyrrolidin-3-ol dihydrochloride

>  <ClogP>
2,5

>  <logS>
-3,692

>  <HBD>
2

>  <HBA>
4

>  <TPSA>
44,73

>  <RotBonds>
5

$$$$

  Mrv1925 04172511352D          

 13 14  0  0  0  0            999 V2000
    1.3222    4.7652    0.0000 N   0  0  0  0  0  0  0  0  0  0  0  0
    2.0367    4.3527    0.0000 C   0  0  0  0  0  0  0  0  0  0  0  0
    2.7512    4.7652    0.0000 N   0  0  0  0  0  0  0  0  0  0  0  0
    3.4656    4.3527    0.0000 C   0  0  0  0  0  0  0  0  0  0  0  0
    3.4656    3.5277    0.0000 C   0  0  0  0  0  0  0  0  0  0  0  0
    2.7512    3.1152    0.0000 C   0  0  0  0  0  0  0  0  0  0  0  0
    2.0367    3.5277    0.0000 N   0  0  0  0  0  0  0  0  0  0  0  0
    2.7512    2.2902    0.0000 N   0  0  0  0  0  0  0  0  0  0  0  0
    3.4186    1.8053    0.0000 C   0  0  0  0  0  0  0  0  0  0  0  0
    3.1637    1.0206    0.0000 C   0  0  0  0  0  0  0  0  0  0  0  0
    2.3387    1.0206    0.0000 C   0  0  0  0  0  0  0  0  0  0  0  0
    1.8538    0.3532    0.0000 O   0  0  0  0  0  0  0  0  0  0  0  0
    2.0837    1.8053    0.0000 C   0  0  0  0  0  0  0  0  0  0  0  0
  1  2  1  0  0  0  0
  2  3  1  0  0  0  0
  3  4  2  0  0  0  0
  4  5  1  0  0  0  0
  5  6  2  0  0  0  0
  6  7  1  0  0  0  0
  2  7  2  0  0  0  0
  6  8  1  0  0  0  0
  8  9  1  0  0  0  0
  9 10  1  0  0  0  0
 10 11  1  0  0  0  0
 11 12  1  0  0  0  0
 11 13  1  0  0  0  0
  8 13  1  0  0  0  0
M  END
>  <Catalog ID>
Z1258981692

>  <Plate_ID>
2026983-X50-02

>  <Well>
E03

>  <V, µL>
50

>  <Conc, mM>
10

>  <Formula>
C8H12N4O

>  <MW>
180.2071

>  <Purity>
100

>  <PO>
5A-64168

>  <MW_salt>
0

>  <Stereochem.data>
Racemic or presumed racemic or meso

>  <Geometric.isomer>
None

>  <Chemical name>
1-(2-aminopyrimidin-4-yl)pyrrolidin-3-ol

>  <ClogP>
-0,636

>  <logS>
-1,562

>  <HBD>
2

>  <HBA>
5

>  <TPSA>
75,27

>  <RotBonds>
1

$$$$

  Mrv1925 04172511352D          

 15 14  0  0  1  0            999 V2000
    0.0000    0.0000    0.0000 Cl  0  0  0  0  0  0  0  0  0  0  0  0
    2.0036    0.0000    0.0000 Cl  0  0  0  0  0  0  0  0  0  0  0  0
   -1.3758   -1.6500    0.0000 C   0  0  0  0  0  0  0  0  0  0  0  0
   -0.6613   -2.0625    0.0000 C   0  0  0  0  0  0  0  0  0  0  0  0
   -0.6613   -2.8875    0.0000 C   0  0  0  0  0  0  0  0  0  0  0  0
    0.0061   -3.3724    0.0000 N   0  0  0  0  0  0  0  0  0  0  0  0
   -0.2488   -4.1570    0.0000 C   0  0  0  0  0  0  0  0  0  0  0  0
   -1.0738   -4.1570    0.0000 N   0  0  0  0  0  0  0  0  0  0  0  0
   -1.3288   -3.3724    0.0000 N   0  0  0  0  0  0  0  0  0  0  0  0
    0.2361   -4.8245    0.0000 C   0  0  2  0  0  0  0  0  0  0  0  0
    1.0611   -4.8245    0.0000 C   0  0  0  0  0  0  0  0  0  0  0  0
    1.3160   -5.6091    0.0000 C   0  0  1  0  0  0  0  0  0  0  0  0
    2.1007   -5.8640    0.0000 O   0  0  0  0  0  0  0  0  0  0  0  0
    0.6486   -6.0940    0.0000 C   0  0  0  0  0  0  0  0  0  0  0  0
   -0.0188   -5.6091    0.0000 N   0  0  0  0  0  0  0  0  0  0  0  0
  3  4  1  0  0  0  0
  4  5  1  0  0  0  0
  5  6  2  0  0  0  0
  6  7  1  0  0  0  0
  7  8  2  0  0  0  0
  8  9  1  0  0  0  0
  5  9  1  0  0  0  0
 10  7  1  6  0  0  0
 10 11  1  0  0  0  0
 12 11  1  0  0  0  0
 12 13  1  1  0  0  0
 12 14  1  0  0  0  0
 14 15  1  0  0  0  0
 10 15  1  0  0  0  0
M  END
>  <Catalog ID>
Z3001750495

>  <Plate_ID>
2026983-X50-02

>  <Well>
F03

>  <V, µL>
50

>  <Conc, mM>
10

>  <Formula>
C8H16Cl2N4O

>  <MW>
255.1448

>  <Purity>
95

>  <PO>
5A-64168

>  <Salt smiles>
Cl

>  <Salt_name>
Hydrochloric Acid

>  <Salt_ratio>
2

>  <MW_salt>
36.4609

>  <Stereochem.data>
Single known enantiomer

>  <Geometric.isomer>
None

>  <Chemical name>
(3R,5S)-5-(5-ethyl-1H-1,2,4-triazol-3-yl)pyrrolidin-3-ol dihydrochloride

>  <ClogP>
-0,994

>  <logS>
-1,275

>  <HBD>
3

>  <HBA>
4

>  <TPSA>
73,83

>  <RotBonds>
2

$$$$

  Mrv1925 04172511352D          

 17 17  0  0  0  0            999 V2000
    0.0000    0.0000    0.0000 Cl  0  0  0  0  0  0  0  0  0  0  0  0
    4.1520    2.8752    0.0000 C   0  0  0  0  0  0  0  0  0  0  0  0
    4.1520    2.0502    0.0000 N   0  0  0  0  0  0  0  0  0  0  0  0
    4.8194    1.5653    0.0000 C   0  0  0  0  0  0  0  0  0  0  0  0
    4.5645    0.7807    0.0000 C   0  0  0  0  0  0  0  0  0  0  0  0
    5.0494    0.1133    0.0000 N   0  0  0  0  0  0  0  0  0  0  0  0
    3.7395    0.7807    0.0000 C   0  0  0  0  0  0  0  0  0  0  0  0
    3.4845    1.5653    0.0000 N   0  0  0  0  0  0  0  0  0  0  0  0
    3.2546    0.1133    0.0000 C   0  0  0  0  0  0  0  0  0  0  0  0
    2.4341    0.1995    0.0000 O   0  0  0  0  0  0  0  0  0  0  0  0
    3.5901   -0.6404    0.0000 N   0  0  0  0  0  0  0  0  0  0  0  0
    4.3971   -0.8119    0.0000 C   0  0  0  0  0  0  0  0  0  0  0  0
    4.4833   -1.6324    0.0000 C   0  0  0  0  0  0  0  0  0  0  0  0
    3.7297   -1.9680    0.0000 C   0  0  0  0  0  0  0  0  0  0  0  0
    3.1776   -1.3549    0.0000 C   0  0  0  0  0  0  0  0  0  0  0  0
    2.3571   -1.4411    0.0000 C   0  0  0  0  0  0  0  0  0  0  0  0
    2.0216   -2.1948    0.0000 O   0  0  0  0  0  0  0  0  0  0  0  0
  2  3  1  0  0  0  0
  3  4  1  0  0  0  0
  4  5  2  0  0  0  0
  5  6  1  0  0  0  0
  5  7  1  0  0  0  0
  7  8  2  0  0  0  0
  3  8  1  0  0  0  0
  7  9  1  0  0  0  0
  9 10  2  0  0  0  0
  9 11  1  0  0  0  0
 11 12  1  0  0  0  0
 12 13  1  0  0  0  0
 13 14  1  0  0  0  0
 14 15  1  0  0  0  0
 11 15  1  0  0  0  0
 15 16  1  0  0  0  0
 16 17  1  0  0  0  0
M  END
>  <Catalog ID>
Z2418413815

>  <Plate_ID>
2026983-X50-02

>  <Well>
G03

>  <V, µL>
50

>  <Conc, mM>
10

>  <Formula>
C10H17ClN4O2

>  <MW>
260.7206

>  <Purity>
100

>  <PO>
5A-64168

>  <Salt smiles>
Cl

>  <Salt_name>
Hydrochloric Acid

>  <Salt_ratio>
1

>  <MW_salt>
36.4609

>  <Stereochem.data>
Racemic or presumed racemic or meso

>  <Geometric.isomer>
None

>  <Chemical name>
[1-(4-amino-1-methyl-1H-pyrazole-3-carbonyl)pyrrolidin-2-yl]methanol hydrochloride

>  <ClogP>
-1,587

>  <logS>
-0,912

>  <HBD>
2

>  <HBA>
4

>  <TPSA>
84,38

>  <RotBonds>
2

$$$$

  Mrv1925 04172511352D          

 17 18  0  0  1  0            999 V2000
    0.1067    4.7652    0.0000 C   0  0  0  0  0  0  0  0  0  0  0  0
   -0.6078    4.3527    0.0000 C   0  0  0  0  0  0  0  0  0  0  0  0
   -0.6078    3.5277    0.0000 C   0  0  0  0  0  0  0  0  0  0  0  0
   -1.3222    3.1152    0.0000 N   0  0  0  0  0  0  0  0  0  0  0  0
   -2.0367    3.5277    0.0000 C   0  0  0  0  0  0  0  0  0  0  0  0
   -2.7512    3.1152    0.0000 O   0  0  0  0  0  0  0  0  0  0  0  0
   -2.0367    4.3527    0.0000 N   0  0  0  0  0  0  0  0  0  0  0  0
   -1.3222    4.7652    0.0000 C   0  0  0  0  0  0  0  0  0  0  0  0
   -1.3222    5.5902    0.0000 O   0  0  0  0  0  0  0  0  0  0  0  0
   -1.3222    2.2902    0.0000 C   0  0  2  0  0  0  0  0  0  0  0  0
   -0.6548    1.8053    0.0000 C   0  0  0  0  0  0  0  0  0  0  0  0
   -0.9097    1.0206    0.0000 C   0  0  1  0  0  0  0  0  0  0  0  0
   -0.4248    0.3532    0.0000 O   0  0  0  0  0  0  0  0  0  0  0  0
   -1.7347    1.0206    0.0000 C   0  0  2  0  0  0  0  0  0  0  0  0
   -2.2197    0.3532    0.0000 C   0  0  0  0  0  0  0  0  0  0  0  0
   -1.8841   -0.4005    0.0000 O   0  0  0  0  0  0  0  0  0  0  0  0
   -1.9897    1.8053    0.0000 O   0  0  0  0  0  0  0  0  0  0  0  0
  1  2  1  0  0  0  0
  2  3  2  0  0  0  0
  3  4  1  0  0  0  0
  4  5  1  0  0  0  0
  5  6  2  0  0  0  0
  5  7  1  0  0  0  0
  7  8  1  0  0  0  0
  2  8  1  0  0  0  0
  8  9  2  0  0  0  0
 10  4  1  6  0  0  0
 10 11  1  0  0  0  0
 12 11  1  0  0  0  0
 12 13  1  1  0  0  0
 12 14  1  0  0  0  0
 14 15  1  6  0  0  0
 15 16  1  0  0  0  0
 14 17  1  0  0  0  0
 10 17  1  0  0  0  0
M  END
>  <Catalog ID>
Z1546610488

>  <Plate_ID>
2026983-X50-02

>  <Well>
H03

>  <V, µL>
50

>  <Conc, mM>
10

>  <Formula>
C10H14N2O5

>  <MW>
242.2286

>  <Purity>
95

>  <PO>
5A-64168

>  <MW_salt>
0

>  <Stereochem.data>
Single known enantiomer

>  <Geometric.isomer>
None

>  <Chemical name>
1-[(2S,4R,5S)-4-hydroxy-5-(hydroxymethyl)oxolan-2-yl]-5-methyl-1,2,3,4-tetrahydropyrimidine-2,4-dione

>  <ClogP>
-1,385

>  <logS>
-1,003

>  <HBD>
3

>  <HBA>
5

>  <TPSA>
99,1

>  <RotBonds>
2

$$$$

  Mrv1925 04172511352D          

  0  0  0     0  0            999 V3000
M  V30 BEGIN CTAB
M  V30 COUNTS 15 16 0 0 0
M  V30 BEGIN ATOM
M  V30 1 C 1.0116 0.4336 0 0
M  V30 2 C 2.3453 -0.3364 0 0
M  V30 3 C 3.679 0.4336 0 0
M  V30 4 N 2.3453 -1.8764 0 0
M  V30 5 C 3.5912 -2.7816 0 0
M  V30 6 C 3.1153 -4.2462 0 0
M  V30 7 C 1.5753 -4.2462 0 0
M  V30 8 N 1.0994 -2.7816 0 0
M  V30 9 C 4.0205 -5.4921 0 0 CFG=2
M  V30 10 C 5.5605 -5.4921 0 0
M  V30 11 N 6.0364 -6.9567 0 0
M  V30 12 C 4.7905 -7.8619 0 0
M  V30 13 C 3.5446 -6.9567 0 0 CFG=1
M  V30 14 C 2.08 -7.4326 0 0
M  V30 15 O 1.7598 -8.939 0 0
M  V30 END ATOM
M  V30 BEGIN BOND
M  V30 1 1 1 2
M  V30 2 1 2 3
M  V30 3 1 2 4
M  V30 4 1 4 5
M  V30 5 2 5 6
M  V30 6 1 6 7
M  V30 7 2 7 8
M  V30 8 1 4 8
M  V30 9 1 9 6 CFG=3
M  V30 10 1 9 10
M  V30 11 1 10 11
M  V30 12 1 11 12
M  V30 13 1 13 12
M  V30 14 1 9 13
M  V30 15 1 13 14 CFG=1
M  V30 16 1 14 15
M  V30 END BOND
M  V30 BEGIN COLLECTION
M  V30 MDLV30/STERAC1 ATOMS=(2 9 13)
M  V30 END COLLECTION
M  V30 END CTAB
M  END
>  <Catalog ID>
Z2310170022

>  <Plate_ID>
2026983-X50-02

>  <Well>
A04

>  <V, µL>
50

>  <Conc, mM>
10

>  <Formula>
C11H19N3O

>  <MW>
209.2881

>  <Purity>
98

>  <PO>
5A-64168

>  <MW_salt>
0

>  <Stereochem.data>
Racemic diastereomer with known relative stereochemistry

>  <Geometric.isomer>
Trans

>  <Chemical name>
rac-[(3R,4S)-4-[1-(propan-2-yl)-1H-pyrazol-4-yl]pyrrolidin-3-yl]methanol

>  <ClogP>
-0,3

>  <logS>
0,381

>  <HBD>
2

>  <HBA>
3

>  <TPSA>
50,08

>  <RotBonds>
3

$$$$

  Mrv1925 04172511352D          

 24 24  0  0  1  0            999 V2000
    0.0000    0.0000    0.0000 Cl  0  0  0  0  0  0  0  0  0  0  0  0
    2.3571   -0.2283    0.0000 C   0  0  0  0  0  0  0  0  0  0  0  0
    3.0716    0.1842    0.0000 C   0  0  0  0  0  0  0  0  0  0  0  0
    3.0716    1.0092    0.0000 C   0  0  0  0  0  0  0  0  0  0  0  0
    3.7861   -0.2283    0.0000 C   0  0  2  0  0  0  0  0  0  0  0  0
    3.7861   -1.0533    0.0000 N   0  0  0  0  0  0  0  0  0  0  0  0
    4.5006    0.1842    0.0000 C   0  0  0  0  0  0  0  0  0  0  0  0
    4.5006    1.0092    0.0000 O   0  0  0  0  0  0  0  0  0  0  0  0
    5.2150   -0.2283    0.0000 O   0  0  0  0  0  0  0  0  0  0  0  0
    5.9295    0.1842    0.0000 C   0  0  0  0  0  0  0  0  0  0  0  0
    6.6440   -0.2283    0.0000 C   0  0  0  0  0  0  0  0  0  0  0  0
    7.3584    0.1842    0.0000 O   0  0  0  0  0  0  0  0  0  0  0  0
    8.0729   -0.2283    0.0000 C   0  0  0  0  0  0  0  0  0  0  0  0
    8.7874    0.1842    0.0000 N   0  0  0  0  0  0  0  0  0  0  0  0
    8.8736    1.0047    0.0000 C   0  0  0  0  0  0  0  0  0  0  0  0
    9.6806    1.1762    0.0000 N   0  0  0  0  0  0  0  0  0  0  0  0
   10.0931    0.4618    0.0000 C   0  0  0  0  0  0  0  0  0  0  0  0
   10.9001    0.2902    0.0000 C   0  0  0  0  0  0  0  0  0  0  0  0
   11.4521    0.9033    0.0000 O   0  0  0  0  0  0  0  0  0  0  0  0
   11.1550   -0.4944    0.0000 N   0  0  0  0  0  0  0  0  0  0  0  0
   10.6030   -1.1075    0.0000 C   0  0  0  0  0  0  0  0  0  0  0  0
   10.8579   -1.8921    0.0000 N   0  0  0  0  0  0  0  0  0  0  0  0
    9.7960   -0.9360    0.0000 N   0  0  0  0  0  0  0  0  0  0  0  0
    9.5411   -0.1513    0.0000 C   0  0  0  0  0  0  0  0  0  0  0  0
  2  3  1  0  0  0  0
  3  4  1  0  0  0  0
  5  3  1  0  0  0  0
  5  6  1  1  0  0  0
  5  7  1  0  0  0  0
  7  8  2  0  0  0  0
  7  9  1  0  0  0  0
  9 10  1  0  0  0  0
 10 11  1  0  0  0  0
 11 12  1  0  0  0  0
 12 13  1  0  0  0  0
 13 14  1  0  0  0  0
 14 15  1  0  0  0  0
 15 16  2  0  0  0  0
 16 17  1  0  0  0  0
 17 18  1  0  0  0  0
 18 19  2  0  0  0  0
 18 20  1  0  0  0  0
 20 21  1  0  0  0  0
 21 22  1  0  0  0  0
 21 23  2  0  0  0  0
 23 24  1  0  0  0  0
 17 24  2  0  0  0  0
 14 24  1  0  0  0  0
M  END
>  <Catalog ID>
Z1546624231

>  <Plate_ID>
2026983-X50-02

>  <Well>
B04

>  <V, µL>
50

>  <Conc, mM>
10

>  <Formula>
C13H21ClN6O4

>  <MW>
360.7966

>  <Purity>
100

>  <PO>
5A-64168

>  <Salt smiles>
Cl

>  <Salt_name>
Hydrochloric Acid

>  <Salt_ratio>
1

>  <MW_salt>
36.4609

>  <Stereochem.data>
Single known enantiomer

>  <Geometric.isomer>
None

>  <Chemical name>
2-[(2-amino-6-oxo-6,9-dihydro-1H-purin-9-yl)methoxy]ethyl (2S)-2-amino-3-methylbutanoate hydrochloride

>  <ClogP>
-1,219

>  <logS>
-3,516

>  <HBD>
3

>  <HBA>
7

>  <TPSA>
146,85

>  <RotBonds>
8

$$$$

  Mrv1925 04172511352D          

 25 27  0  0  1  0            999 V2000
    4.9279    1.1104    0.0000 C   0  0  0  0  0  0  0  0  0  0  0  0
    4.2135    0.6979    0.0000 C   0  0  0  0  0  0  0  0  0  0  0  0
    4.2135   -0.1271    0.0000 C   0  0  0  0  0  0  0  0  0  0  0  0
    3.4990    1.1104    0.0000 C   0  0  0  0  0  0  0  0  0  0  0  0
    3.4990    1.9354    0.0000 O   0  0  0  0  0  0  0  0  0  0  0  0
    2.7845    0.6979    0.0000 N   0  0  0  0  0  0  0  0  0  0  0  0
    2.0701    1.1104    0.0000 C   0  0  0  0  0  0  0  0  0  0  0  0
    1.3556    0.6979    0.0000 N   0  0  0  0  0  0  0  0  0  0  0  0
    0.6411    1.1104    0.0000 C   0  0  0  0  0  0  0  0  0  0  0  0
    0.6411    1.9354    0.0000 C   0  0  0  0  0  0  0  0  0  0  0  0
   -0.1435    2.1904    0.0000 N   0  0  0  0  0  0  0  0  0  0  0  0
   -0.6284    1.5229    0.0000 C   0  0  0  0  0  0  0  0  0  0  0  0
   -0.1435    0.8555    0.0000 N   0  0  0  0  0  0  0  0  0  0  0  0
   -0.3984    0.0709    0.0000 C   0  0  2  0  0  0  0  0  0  0  0  0
    0.0865   -0.5966    0.0000 O   0  0  0  0  0  0  0  0  0  0  0  0
   -0.3984   -1.2640    0.0000 C   0  0  2  0  0  0  0  0  0  0  0  0
   -0.1435   -2.0486    0.0000 C   0  0  0  0  0  0  0  0  0  0  0  0
    0.6635   -2.2201    0.0000 O   0  0  0  0  0  0  0  0  0  0  0  0
   -1.1831   -1.0091    0.0000 C   0  0  1  0  0  0  0  0  0  0  0  0
   -1.8505   -1.4940    0.0000 O   0  0  0  0  0  0  0  0  0  0  0  0
   -1.1831   -0.1841    0.0000 C   0  0  1  0  0  0  0  0  0  0  0  0
   -1.8505    0.3009    0.0000 O   0  0  0  0  0  0  0  0  0  0  0  0
    1.3556    2.3479    0.0000 C   0  0  0  0  0  0  0  0  0  0  0  0
    1.3556    3.1729    0.0000 O   0  0  0  0  0  0  0  0  0  0  0  0
    2.0701    1.9354    0.0000 N   0  0  0  0  0  0  0  0  0  0  0  0
  1  2  1  0  0  0  0
  2  3  1  0  0  0  0
  2  4  1  0  0  0  0
  4  5  2  0  0  0  0
  4  6  1  0  0  0  0
  6  7  1  0  0  0  0
  7  8  2  0  0  0  0
  8  9  1  0  0  0  0
  9 10  2  0  0  0  0
 10 11  1  0  0  0  0
 11 12  2  0  0  0  0
 12 13  1  0  0  0  0
  9 13  1  0  0  0  0
 14 13  1  6  0  0  0
 14 15  1  0  0  0  0
 16 15  1  0  0  0  0
 16 17  1  6  0  0  0
 17 18  1  0  0  0  0
 19 16  1  0  0  0  0
 19 20  1  1  0  0  0
 19 21  1  0  0  0  0
 21 14  1  0  0  0  0
 21 22  1  1  0  0  0
 10 23  1  0  0  0  0
 23 24  2  0  0  0  0
 23 25  1  0  0  0  0
  7 25  1  0  0  0  0
M  END
>  <Catalog ID>
Z2228348553

>  <Plate_ID>
2026983-X50-02

>  <Well>
C04

>  <V, µL>
50

>  <Conc, mM>
10

>  <Formula>
C14H19N5O6

>  <MW>
353.3306

>  <Purity>
98.85

>  <PO>
5A-64168

>  <MW_salt>
0

>  <Stereochem.data>
Single known enantiomer

>  <Geometric.isomer>
None

>  <Chemical name>
N-{9-[(2R,3R,4S,5R)-3,4-dihydroxy-5-(hydroxymethyl)oxolan-2-yl]-6-oxo-6,9-dihydro-1H-purin-2-yl}-2-methylpropanamide

>  <ClogP>
-1,555

>  <logS>
-2,619

>  <HBD>
5

>  <HBA>
8

>  <TPSA>
158,3

>  <RotBonds>
4

$$$$

  Mrv1925 04172511352D          

 19 21  0  0  1  0            999 V2000
   -0.4820   -4.5353    0.0000 O   0  0  0  0  0  0  0  0  0  0  0  0
   -0.5683   -3.7149    0.0000 C   0  0  0  0  0  0  0  0  0  0  0  0
    0.0992   -3.2299    0.0000 C   0  0  1  0  0  0  0  0  0  0  0  0
    0.0992   -2.4049    0.0000 O   0  0  0  0  0  0  0  0  0  0  0  0
    0.8838   -2.1500    0.0000 C   0  0  2  0  0  0  0  0  0  0  0  0
    1.3687   -2.8174    0.0000 C   0  0  2  0  0  0  0  0  0  0  0  0
    2.1937   -2.8174    0.0000 O   0  0  0  0  0  0  0  0  0  0  0  0
    0.8838   -3.4849    0.0000 C   0  0  2  0  0  0  0  0  0  0  0  0
    1.1387   -4.2695    0.0000 O   0  0  0  0  0  0  0  0  0  0  0  0
    1.1387   -1.3654    0.0000 N   0  0  0  0  0  0  0  0  0  0  0  0
    0.6538   -0.6979    0.0000 C   0  0  0  0  0  0  0  0  0  0  0  0
    1.1387   -0.0305    0.0000 N   0  0  0  0  0  0  0  0  0  0  0  0
    1.9233   -0.2854    0.0000 C   0  0  0  0  0  0  0  0  0  0  0  0
    2.6378    0.1271    0.0000 C   0  0  0  0  0  0  0  0  0  0  0  0
    2.6378    0.9521    0.0000 Cl  0  0  0  0  0  0  0  0  0  0  0  0
    3.3523   -0.2854    0.0000 N   0  0  0  0  0  0  0  0  0  0  0  0
    3.3523   -1.1104    0.0000 C   0  0  0  0  0  0  0  0  0  0  0  0
    2.6378   -1.5229    0.0000 N   0  0  0  0  0  0  0  0  0  0  0  0
    1.9233   -1.1104    0.0000 C   0  0  0  0  0  0  0  0  0  0  0  0
  1  2  1  0  0  0  0
  3  2  1  1  0  0  0
  3  4  1  0  0  0  0
  5  4  1  0  0  0  0
  6  5  1  0  0  0  0
  6  7  1  6  0  0  0
  6  8  1  0  0  0  0
  8  3  1  0  0  0  0
  8  9  1  6  0  0  0
  5 10  1  1  0  0  0
 10 11  1  0  0  0  0
 11 12  2  0  0  0  0
 12 13  1  0  0  0  0
 13 14  1  0  0  0  0
 14 15  1  0  0  0  0
 14 16  2  0  0  0  0
 16 17  1  0  0  0  0
 17 18  2  0  0  0  0
 18 19  1  0  0  0  0
 13 19  2  0  0  0  0
 10 19  1  0  0  0  0
M  END
>  <Catalog ID>
Z1741975385

>  <Plate_ID>
2026983-X50-02

>  <Well>
D04

>  <V, µL>
50

>  <Conc, mM>
10

>  <Formula>
C10H11ClN4O4

>  <MW>
286.6717

>  <Purity>
100

>  <PO>
5A-64168

>  <MW_salt>
0

>  <Stereochem.data>
Single known enantiomer

>  <Geometric.isomer>
None

>  <Chemical name>
(2R,3R,4S,5R)-2-(6-chloro-9H-purin-9-yl)-5-(hydroxymethyl)oxolane-3,4-diol

>  <ClogP>
-1,503

>  <logS>
-2,016

>  <HBD>
3

>  <HBA>
7

>  <TPSA>
113,52

>  <RotBonds>
2

$$$$

  Mrv1925 04172511352D          

 18 19  0  0  0  0            999 V2000
    0.6078    6.0027    0.0000 O   0  0  0  0  0  0  0  0  0  0  0  0
    1.3222    5.5902    0.0000 C   0  0  0  0  0  0  0  0  0  0  0  0
    2.0367    6.0027    0.0000 O   0  0  0  0  0  0  0  0  0  0  0  0
    1.3222    4.7652    0.0000 C   0  0  0  0  0  0  0  0  0  0  0  0
    2.0367    4.3527    0.0000 N   0  0  0  0  0  0  0  0  0  0  0  0
    2.7512    4.7652    0.0000 C   0  0  0  0  0  0  0  0  0  0  0  0
    2.7512    5.5902    0.0000 O   0  0  0  0  0  0  0  0  0  0  0  0
    3.4656    4.3527    0.0000 C   0  0  0  0  0  0  0  0  0  0  0  0
    4.1801    4.7652    0.0000 F   0  0  0  0  0  0  0  0  0  0  0  0
    3.4656    3.5277    0.0000 C   0  0  0  0  0  0  0  0  0  0  0  0
    2.7512    3.1152    0.0000 N   0  0  0  0  0  0  0  0  0  0  0  0
    2.0367    3.5277    0.0000 C   0  0  0  0  0  0  0  0  0  0  0  0
    1.3222    3.1152    0.0000 O   0  0  0  0  0  0  0  0  0  0  0  0
    2.7512    2.2902    0.0000 C   0  0  0  0  0  0  0  0  0  0  0  0
    3.4186    1.8053    0.0000 C   0  0  0  0  0  0  0  0  0  0  0  0
    3.1637    1.0206    0.0000 C   0  0  0  0  0  0  0  0  0  0  0  0
    2.3387    1.0206    0.0000 C   0  0  0  0  0  0  0  0  0  0  0  0
    2.0837    1.8053    0.0000 O   0  0  0  0  0  0  0  0  0  0  0  0
  1  2  2  0  0  0  0
  2  3  1  0  0  0  0
  2  4  1  0  0  0  0
  4  5  1  0  0  0  0
  5  6  1  0  0  0  0
  6  7  2  0  0  0  0
  6  8  1  0  0  0  0
  8  9  1  0  0  0  0
  8 10  2  0  0  0  0
 10 11  1  0  0  0  0
 11 12  1  0  0  0  0
  5 12  1  0  0  0  0
 12 13  2  0  0  0  0
 11 14  1  0  0  0  0
 14 15  1  0  0  0  0
 15 16  1  0  0  0  0
 16 17  1  0  0  0  0
 17 18  1  0  0  0  0
 14 18  1  0  0  0  0
M  END
>  <Catalog ID>
Z118507064

>  <Plate_ID>
2026983-X50-02

>  <Well>
E04

>  <V, µL>
50

>  <Conc, mM>
10

>  <Formula>
C10H11FN2O5

>  <MW>
258.2031

>  <Purity>
97.55

>  <PO>
5A-64168

>  <MW_salt>
0

>  <Stereochem.data>
Racemic or presumed racemic or meso

>  <Geometric.isomer>
None

>  <Chemical name>
2-[5-fluoro-2,6-dioxo-3-(oxolan-2-yl)-1,2,3,6-tetrahydropyrimidin-1-yl]acetic acid

>  <ClogP>
0,754

>  <logS>
-0,52

>  <HBD>
1

>  <HBA>
5

>  <TPSA>
87,15

>  <RotBonds>
3

$$$$

  Mrv1925 04172511352D          

 17 18  0  0  1  0            999 V2000
    0.7145    6.7661    0.0000 N   0  0  0  0  0  0  0  0  0  0  0  0
    0.7145    5.9411    0.0000 C   0  0  0  0  0  0  0  0  0  0  0  0
    1.4289    5.5286    0.0000 C   0  0  0  0  0  0  0  0  0  0  0  0
    1.4289    4.7036    0.0000 C   0  0  0  0  0  0  0  0  0  0  0  0
    0.7145    4.2911    0.0000 N   0  0  0  0  0  0  0  0  0  0  0  0
    0.0000    4.7036    0.0000 C   0  0  0  0  0  0  0  0  0  0  0  0
   -0.7145    4.2911    0.0000 O   0  0  0  0  0  0  0  0  0  0  0  0
    0.0000    5.5286    0.0000 N   0  0  0  0  0  0  0  0  0  0  0  0
    0.7145    3.4661    0.0000 C   0  0  2  0  0  0  0  0  0  0  0  0
    1.3819    2.9812    0.0000 O   0  0  0  0  0  0  0  0  0  0  0  0
    1.1270    2.1965    0.0000 C   0  0  2  0  0  0  0  0  0  0  0  0
    1.6119    1.5291    0.0000 C   0  0  0  0  0  0  0  0  0  0  0  0
    2.4324    1.6153    0.0000 O   0  0  0  0  0  0  0  0  0  0  0  0
    0.3020    2.1965    0.0000 C   0  0  1  0  0  0  0  0  0  0  0  0
   -0.1830    1.5291    0.0000 O   0  0  0  0  0  0  0  0  0  0  0  0
    0.0470    2.9812    0.0000 C   0  0  2  0  0  0  0  0  0  0  0  0
   -0.7376    3.2361    0.0000 O   0  0  0  0  0  0  0  0  0  0  0  0
  1  2  1  0  0  0  0
  2  3  1  0  0  0  0
  3  4  2  0  0  0  0
  4  5  1  0  0  0  0
  5  6  1  0  0  0  0
  6  7  2  0  0  0  0
  6  8  1  0  0  0  0
  2  8  2  0  0  0  0
  9  5  1  6  0  0  0
  9 10  1  0  0  0  0
 11 10  1  0  0  0  0
 11 12  1  6  0  0  0
 12 13  1  0  0  0  0
 14 11  1  0  0  0  0
 14 15  1  1  0  0  0
 14 16  1  0  0  0  0
 16  9  1  0  0  0  0
 16 17  1  6  0  0  0
M  END
>  <Catalog ID>
Z1511499171

>  <Plate_ID>
2026983-X50-02

>  <Well>
F04

>  <V, µL>
50

>  <Conc, mM>
10

>  <Formula>
C9H13N3O5

>  <MW>
243.2166

>  <Purity>
95

>  <PO>
5A-64168

>  <MW_salt>
0

>  <Stereochem.data>
Single known enantiomer

>  <Geometric.isomer>
None

>  <Chemical name>
4-amino-1-[(2R,3S,4S,5R)-3,4-dihydroxy-5-(hydroxymethyl)oxolan-2-yl]-1,2-dihydropyrimidin-2-one

>  <ClogP>
-2,195

>  <logS>
-0,42

>  <HBD>
4

>  <HBA>
7

>  <TPSA>
128,61

>  <RotBonds>
2

$$$$

  Mrv1925 04172511352D          

 16 15  0  0  0  0            999 V2000
    0.0000    0.0000    0.0000 Cl  0  0  0  0  0  0  0  0  0  0  0  0
    2.4823    2.0075    0.0000 N   0  0  0  0  0  0  0  0  0  0  0  0
    3.1968    1.5950    0.0000 C   0  0  0  0  0  0  0  0  0  0  0  0
    3.1968    0.7700    0.0000 C   0  0  0  0  0  0  0  0  0  0  0  0
    3.9113    0.3575    0.0000 C   0  0  0  0  0  0  0  0  0  0  0  0
    3.9113   -0.4675    0.0000 N   0  0  0  0  0  0  0  0  0  0  0  0
    4.6257   -0.8800    0.0000 C   0  0  0  0  0  0  0  0  0  0  0  0
    5.3402   -0.4675    0.0000 C   0  0  0  0  0  0  0  0  0  0  0  0
    6.0547   -0.0550    0.0000 F   0  0  0  0  0  0  0  0  0  0  0  0
    5.7527   -1.1820    0.0000 F   0  0  0  0  0  0  0  0  0  0  0  0
    4.9277    0.2470    0.0000 F   0  0  0  0  0  0  0  0  0  0  0  0
    3.1968   -0.8800    0.0000 C   0  0  0  0  0  0  0  0  0  0  0  0
    3.1968   -1.7050    0.0000 O   0  0  0  0  0  0  0  0  0  0  0  0
    2.4823   -0.4675    0.0000 N   0  0  0  0  0  0  0  0  0  0  0  0
    2.4823    0.3575    0.0000 C   0  0  0  0  0  0  0  0  0  0  0  0
    1.7679    0.7700    0.0000 O   0  0  0  0  0  0  0  0  0  0  0  0
  2  3  1  0  0  0  0
  3  4  1  0  0  0  0
  4  5  2  0  0  0  0
  5  6  1  0  0  0  0
  6  7  1  0  0  0  0
  7  8  1  0  0  0  0
  8  9  1  0  0  0  0
  8 10  1  0  0  0  0
  8 11  1  0  0  0  0
  6 12  1  0  0  0  0
 12 13  2  0  0  0  0
 12 14  1  0  0  0  0
 14 15  1  0  0  0  0
  4 15  1  0  0  0  0
 15 16  2  0  0  0  0
M  END
>  <Catalog ID>
Z2681261526

>  <Plate_ID>
2026983-X50-02

>  <Well>
G04

>  <V, µL>
50

>  <Conc, mM>
10

>  <Formula>
C7H9ClF3N3O2

>  <MW>
259.6135

>  <Purity>
100

>  <PO>
5A-64168

>  <Salt smiles>
Cl

>  <Salt_name>
Hydrochloric Acid

>  <Salt_ratio>
1

>  <MW_salt>
36.4609

>  <Stereochem.data>
Achiral

>  <Geometric.isomer>
None

>  <Chemical name>
5-(aminomethyl)-1-(2,2,2-trifluoroethyl)-1,2,3,4-tetrahydropyrimidine-2,4-dione hydrochloride

>  <ClogP>
-1,455

>  <logS>
-2,285

>  <HBD>
2

>  <HBA>
3

>  <TPSA>
75,43

>  <RotBonds>
3

$$$$

  Mrv1925 04172511352D          

 34 37  0  0  1  0            999 V2000
    0.8212    2.0009    0.0000 C   0  0  0  0  0  0  0  0  0  0  0  0
    0.8212    1.1759    0.0000 O   0  0  0  0  0  0  0  0  0  0  0  0
    0.1067    0.7634    0.0000 C   0  0  0  0  0  0  0  0  0  0  0  0
    0.1067   -0.0616    0.0000 C   0  0  0  0  0  0  0  0  0  0  0  0
   -0.6078   -0.4741    0.0000 C   0  0  0  0  0  0  0  0  0  0  0  0
   -1.3222   -0.0616    0.0000 C   0  0  0  0  0  0  0  0  0  0  0  0
   -1.3222    0.7634    0.0000 C   0  0  0  0  0  0  0  0  0  0  0  0
   -0.6078    1.1759    0.0000 C   0  0  0  0  0  0  0  0  0  0  0  0
   -0.6078    2.0009    0.0000 Cl  0  0  0  0  0  0  0  0  0  0  0  0
   -2.0367   -0.4741    0.0000 C   0  0  0  0  0  0  0  0  0  0  0  0
   -2.7512   -0.0616    0.0000 N   0  0  0  0  0  0  0  0  0  0  0  0
   -3.4656   -0.4741    0.0000 C   0  0  0  0  0  0  0  0  0  0  0  0
   -3.4656   -1.2991    0.0000 N   0  0  0  0  0  0  0  0  0  0  0  0
   -4.1801   -1.7116    0.0000 C   0  0  0  0  0  0  0  0  0  0  0  0
   -4.8946   -1.2991    0.0000 N   0  0  0  0  0  0  0  0  0  0  0  0
   -4.8946   -0.4741    0.0000 C   0  0  0  0  0  0  0  0  0  0  0  0
   -4.1801   -0.0616    0.0000 C   0  0  0  0  0  0  0  0  0  0  0  0
   -4.1801    0.7634    0.0000 C   0  0  0  0  0  0  0  0  0  0  0  0
   -4.8946    1.1759    0.0000 O   0  0  0  0  0  0  0  0  0  0  0  0
   -3.4656    1.1759    0.0000 N   0  0  0  0  0  0  0  0  0  0  0  0
   -3.4656    2.0009    0.0000 C   0  0  0  0  0  0  0  0  0  0  0  0
   -4.1801    2.4134    0.0000 C   0  0  0  0  0  0  0  0  0  0  0  0
   -4.8946    2.0009    0.0000 N   0  0  0  0  0  0  0  0  0  0  0  0
   -5.6091    2.4134    0.0000 C   0  0  0  0  0  0  0  0  0  0  0  0
   -5.6091    3.2384    0.0000 C   0  0  0  0  0  0  0  0  0  0  0  0
   -4.8946    3.6509    0.0000 C   0  0  0  0  0  0  0  0  0  0  0  0
   -4.1801    3.2384    0.0000 N   0  0  0  0  0  0  0  0  0  0  0  0
   -4.1801   -2.5366    0.0000 N   0  0  0  0  0  0  0  0  0  0  0  0
   -3.5127   -3.0215    0.0000 C   0  0  0  0  0  0  0  0  0  0  0  0
   -3.7676   -3.8062    0.0000 C   0  0  0  0  0  0  0  0  0  0  0  0
   -4.5926   -3.8062    0.0000 C   0  0  0  0  0  0  0  0  0  0  0  0
   -4.8476   -3.0215    0.0000 C   0  0  1  0  0  0  0  0  0  0  0  0
   -5.6322   -2.7666    0.0000 C   0  0  0  0  0  0  0  0  0  0  0  0
   -5.8037   -1.9596    0.0000 O   0  0  0  0  0  0  0  0  0  0  0  0
  1  2  1  0  0  0  0
  2  3  1  0  0  0  0
  3  4  1  0  0  0  0
  4  5  2  0  0  0  0
  5  6  1  0  0  0  0
  6  7  2  0  0  0  0
  7  8  1  0  0  0  0
  3  8  2  0  0  0  0
  8  9  1  0  0  0  0
  6 10  1  0  0  0  0
 10 11  1  0  0  0  0
 11 12  1  0  0  0  0
 12 13  1  0  0  0  0
 13 14  2  0  0  0  0
 14 15  1  0  0  0  0
 15 16  2  0  0  0  0
 16 17  1  0  0  0  0
 12 17  2  0  0  0  0
 17 18  1  0  0  0  0
 18 19  2  0  0  0  0
 18 20  1  0  0  0  0
 20 21  1  0  0  0  0
 21 22  1  0  0  0  0
 22 23  1  0  0  0  0
 23 24  2  0  0  0  0
 24 25  1  0  0  0  0
 25 26  2  0  0  0  0
 26 27  1  0  0  0  0
 22 27  2  0  0  0  0
 14 28  1  0  0  0  0
 28 29  1  0  0  0  0
 29 30  1  0  0  0  0
 30 31  1  0  0  0  0
 32 31  1  0  0  0  0
 32 28  1  0  0  0  0
 32 33  1  1  0  0  0
 33 34  1  0  0  0  0
M  END
>  <Catalog ID>
Z2235802070

>  <Plate_ID>
2026983-X50-02

>  <Well>
H04

>  <V, µL>
50

>  <Conc, mM>
10

>  <Formula>
C23H26ClN7O3

>  <MW>
483.9506

>  <Purity>
100

>  <PO>
5A-64168

>  <MW_salt>
0

>  <Stereochem.data>
Single known enantiomer

>  <Geometric.isomer>
None

>  <Chemical name>
4-{[(3-chloro-4-methoxyphenyl)methyl]amino}-2-[(2S)-2-(hydroxymethyl)pyrrolidin-1-yl]-N-[(pyrimidin-2-yl)methyl]pyrimidine-5-carboxamide

>  <ClogP>
2,357

>  <logS>
-4,234

>  <HBD>
3

>  <HBA>
9

>  <TPSA>
125,39

>  <RotBonds>
9

$$$$

  Mrv1925 04172511352D          

 19 19  0  0  1  0            999 V2000
    0.0000    0.0000    0.0000 Cl  0  0  0  0  0  0  0  0  0  0  0  0
    2.0036    0.0000    0.0000 Cl  0  0  0  0  0  0  0  0  0  0  0  0
    1.6370   -1.6500    0.0000 O   0  0  0  0  0  0  0  0  0  0  0  0
    1.6370   -2.4750    0.0000 C   0  0  1  0  0  0  0  0  0  0  0  0
    2.3045   -2.9599    0.0000 C   0  0  0  0  0  0  0  0  0  0  0  0
    2.0495   -3.7445    0.0000 N   0  0  0  0  0  0  0  0  0  0  0  0
    1.2245   -3.7445    0.0000 C   0  0  1  0  0  0  0  0  0  0  0  0
    0.9696   -2.9599    0.0000 C   0  0  0  0  0  0  0  0  0  0  0  0
    0.7396   -4.4120    0.0000 C   0  0  0  0  0  0  0  0  0  0  0  0
    0.9945   -5.1966    0.0000 N   0  0  0  0  0  0  0  0  0  0  0  0
    0.3271   -5.6815    0.0000 N   0  0  0  0  0  0  0  0  0  0  0  0
   -0.3403   -5.1966    0.0000 C   0  0  0  0  0  0  0  0  0  0  0  0
   -0.0854   -4.4120    0.0000 N   0  0  0  0  0  0  0  0  0  0  0  0
   -1.1250   -5.4515    0.0000 C   0  0  0  0  0  0  0  0  0  0  0  0
   -1.2965   -6.2585    0.0000 C   0  0  0  0  0  0  0  0  0  0  0  0
   -2.0811   -6.5135    0.0000 C   0  0  0  0  0  0  0  0  0  0  0  0
   -2.6942   -5.9614    0.0000 C   0  0  0  0  0  0  0  0  0  0  0  0
   -2.5227   -5.1545    0.0000 C   0  0  0  0  0  0  0  0  0  0  0  0
   -1.7381   -4.8995    0.0000 C   0  0  0  0  0  0  0  0  0  0  0  0
  4  3  1  1  0  0  0
  4  5  1  0  0  0  0
  5  6  1  0  0  0  0
  7  6  1  0  0  0  0
  7  8  1  0  0  0  0
  4  8  1  0  0  0  0
  7  9  1  6  0  0  0
  9 10  2  0  0  0  0
 10 11  1  0  0  0  0
 11 12  1  0  0  0  0
 12 13  2  0  0  0  0
  9 13  1  0  0  0  0
 12 14  1  0  0  0  0
 14 15  1  0  0  0  0
 15 16  2  0  0  0  0
 16 17  1  0  0  0  0
 17 18  2  0  0  0  0
 18 19  1  0  0  0  0
 14 19  2  0  0  0  0
M  END
>  <Catalog ID>
Z2955323494

>  <Plate_ID>
2026983-X50-02

>  <Well>
A05

>  <V, µL>
50

>  <Conc, mM>
10

>  <Formula>
C12H16Cl2N4O

>  <MW>
303.1876

>  <Purity>
100

>  <PO>
5A-64168

>  <Salt smiles>
Cl

>  <Salt_name>
Hydrochloric Acid

>  <Salt_ratio>
2

>  <MW_salt>
36.4609

>  <Stereochem.data>
Single known enantiomer

>  <Geometric.isomer>
None

>  <Chemical name>
(3R,5S)-5-(5-phenyl-1H-1,2,4-triazol-3-yl)pyrrolidin-3-ol dihydrochloride

>  <ClogP>
0,306

>  <logS>
-3,401

>  <HBD>
3

>  <HBA>
4

>  <TPSA>
73,83

>  <RotBonds>
2

$$$$

  Mrv1925 04172511352D          

 17 18  0  0  1  0            999 V2000
    0.7145    6.7661    0.0000 N   0  0  0  0  0  0  0  0  0  0  0  0
    0.7145    5.9411    0.0000 C   0  0  0  0  0  0  0  0  0  0  0  0
    1.4289    5.5286    0.0000 N   0  0  0  0  0  0  0  0  0  0  0  0
    1.4289    4.7036    0.0000 C   0  0  0  0  0  0  0  0  0  0  0  0
    0.7145    4.2911    0.0000 N   0  0  0  0  0  0  0  0  0  0  0  0
    0.0000    4.7036    0.0000 C   0  0  0  0  0  0  0  0  0  0  0  0
   -0.7145    4.2911    0.0000 O   0  0  0  0  0  0  0  0  0  0  0  0
    0.0000    5.5286    0.0000 N   0  0  0  0  0  0  0  0  0  0  0  0
    0.7145    3.4661    0.0000 C   0  0  2  0  0  0  0  0  0  0  0  0
    1.3819    2.9812    0.0000 O   0  0  0  0  0  0  0  0  0  0  0  0
    1.1270    2.1965    0.0000 C   0  0  2  0  0  0  0  0  0  0  0  0
    1.6119    1.5291    0.0000 C   0  0  0  0  0  0  0  0  0  0  0  0
    2.4324    1.6153    0.0000 O   0  0  0  0  0  0  0  0  0  0  0  0
    0.3020    2.1965    0.0000 C   0  0  1  0  0  0  0  0  0  0  0  0
   -0.1830    1.5291    0.0000 O   0  0  0  0  0  0  0  0  0  0  0  0
    0.0470    2.9812    0.0000 C   0  0  1  0  0  0  0  0  0  0  0  0
   -0.7376    3.2361    0.0000 O   0  0  0  0  0  0  0  0  0  0  0  0
  1  2  1  0  0  0  0
  2  3  1  0  0  0  0
  3  4  2  0  0  0  0
  4  5  1  0  0  0  0
  5  6  1  0  0  0  0
  6  7  2  0  0  0  0
  6  8  1  0  0  0  0
  2  8  2  0  0  0  0
  9  5  1  6  0  0  0
  9 10  1  0  0  0  0
 11 10  1  0  0  0  0
 11 12  1  6  0  0  0
 12 13  1  0  0  0  0
 14 11  1  0  0  0  0
 14 15  1  1  0  0  0
 14 16  1  0  0  0  0
 16  9  1  0  0  0  0
 16 17  1  1  0  0  0
M  END
>  <Catalog ID>
Z1515383340

>  <Plate_ID>
2026983-X50-02

>  <Well>
B05

>  <V, µL>
50

>  <Conc, mM>
10

>  <Formula>
C8H12N4O5

>  <MW>
244.2047

>  <Purity>
100

>  <PO>
5A-64168

>  <MW_salt>
0

>  <Stereochem.data>
Single known enantiomer

>  <Geometric.isomer>
None

>  <Chemical name>
4-amino-1-[(2R,3R,4S,5R)-3,4-dihydroxy-5-(hydroxymethyl)oxolan-2-yl]-1,2-dihydro-1,3,5-triazin-2-one

>  <ClogP>
-2,198

>  <logS>
-0,97

>  <HBD>
4

>  <HBA>
8

>  <TPSA>
140,97

>  <RotBonds>
2

$$$$

  Mrv1925 04172511352D          

 16 17  0  0  0  0            999 V2000
    2.4379   -2.4104    0.0000 N   0  0  0  0  0  0  0  0  0  0  0  0
    1.8859   -1.7973    0.0000 C   0  0  0  0  0  0  0  0  0  0  0  0
    1.0789   -1.9688    0.0000 N   0  0  0  0  0  0  0  0  0  0  0  0
    0.5269   -1.3557    0.0000 C   0  0  0  0  0  0  0  0  0  0  0  0
   -0.2801   -1.5273    0.0000 O   0  0  0  0  0  0  0  0  0  0  0  0
    0.7818   -0.5711    0.0000 C   0  0  0  0  0  0  0  0  0  0  0  0
    0.3693    0.1433    0.0000 N   0  0  0  0  0  0  0  0  0  0  0  0
    0.9213    0.7564    0.0000 C   0  0  0  0  0  0  0  0  0  0  0  0
    1.6750    0.4209    0.0000 N   0  0  0  0  0  0  0  0  0  0  0  0
    2.3895    0.8334    0.0000 C   0  0  0  0  0  0  0  0  0  0  0  0
    3.1039    0.4209    0.0000 O   0  0  0  0  0  0  0  0  0  0  0  0
    3.8184    0.8334    0.0000 C   0  0  0  0  0  0  0  0  0  0  0  0
    4.5329    0.4209    0.0000 C   0  0  0  0  0  0  0  0  0  0  0  0
    5.2474    0.8334    0.0000 O   0  0  0  0  0  0  0  0  0  0  0  0
    1.5888   -0.3996    0.0000 C   0  0  0  0  0  0  0  0  0  0  0  0
    2.1408   -1.0127    0.0000 N   0  0  0  0  0  0  0  0  0  0  0  0
  1  2  1  0  0  0  0
  2  3  2  0  0  0  0
  3  4  1  0  0  0  0
  4  5  2  0  0  0  0
  4  6  1  0  0  0  0
  6  7  1  0  0  0  0
  7  8  2  0  0  0  0
  8  9  1  0  0  0  0
  9 10  1  0  0  0  0
 10 11  1  0  0  0  0
 11 12  1  0  0  0  0
 12 13  1  0  0  0  0
 13 14  1  0  0  0  0
  9 15  1  0  0  0  0
  6 15  2  0  0  0  0
 15 16  1  0  0  0  0
  2 16  1  0  0  0  0
M  END
>  <Catalog ID>
Z1546610471

>  <Plate_ID>
2026983-X50-02

>  <Well>
C05

>  <V, µL>
50

>  <Conc, mM>
10

>  <Formula>
C8H11N5O3

>  <MW>
225.2046

>  <Purity>
100

>  <PO>
5A-64168

>  <MW_salt>
0

>  <Stereochem.data>
Achiral

>  <Geometric.isomer>
None

>  <Chemical name>
2-amino-9-[(2-hydroxyethoxy)methyl]-6,9-dihydro-3H-purin-6-one

>  <ClogP>
-2,605

>  <logS>
-1,394

>  <HBD>
3

>  <HBA>
7

>  <TPSA>
114,76

>  <RotBonds>
4

$$$$

  Mrv1925 04172511352D          

 19 20  0  0  1  0            999 V2000
    0.1067    4.7652    0.0000 C   0  0  0  0  0  0  0  0  0  0  0  0
   -0.6078    4.3527    0.0000 C   0  0  0  0  0  0  0  0  0  0  0  0
   -0.6078    3.5277    0.0000 C   0  0  0  0  0  0  0  0  0  0  0  0
   -1.3222    3.1152    0.0000 N   0  0  0  0  0  0  0  0  0  0  0  0
   -2.0367    3.5277    0.0000 C   0  0  0  0  0  0  0  0  0  0  0  0
   -2.7512    3.1152    0.0000 O   0  0  0  0  0  0  0  0  0  0  0  0
   -2.0367    4.3527    0.0000 N   0  0  0  0  0  0  0  0  0  0  0  0
   -1.3222    4.7652    0.0000 C   0  0  0  0  0  0  0  0  0  0  0  0
   -1.3222    5.5902    0.0000 O   0  0  0  0  0  0  0  0  0  0  0  0
   -1.3222    2.2902    0.0000 C   0  0  1  0  0  0  0  0  0  0  0  0
   -0.6548    1.8053    0.0000 C   0  0  0  0  0  0  0  0  0  0  0  0
   -0.9097    1.0206    0.0000 C   0  0  2  0  0  0  0  0  0  0  0  0
   -0.4248    0.3532    0.0000 N   0  0  0  0  0  0  0  0  0  0  0  0
    0.3957    0.4394    0.0000 N   0  3  0  0  0  0  0  0  0  0  0  0
    1.2161    0.5257    0.0000 N   0  5  0  0  0  0  0  0  0  0  0  0
   -1.7347    1.0206    0.0000 C   0  0  1  0  0  0  0  0  0  0  0  0
   -2.2197    0.3532    0.0000 C   0  0  0  0  0  0  0  0  0  0  0  0
   -3.0401    0.4394    0.0000 O   0  0  0  0  0  0  0  0  0  0  0  0
   -1.9897    1.8053    0.0000 O   0  0  0  0  0  0  0  0  0  0  0  0
  1  2  1  0  0  0  0
  2  3  2  0  0  0  0
  3  4  1  0  0  0  0
  4  5  1  0  0  0  0
  5  6  2  0  0  0  0
  5  7  1  0  0  0  0
  7  8  1  0  0  0  0
  2  8  1  0  0  0  0
  8  9  2  0  0  0  0
 10  4  1  1  0  0  0
 10 11  1  0  0  0  0
 12 11  1  0  0  0  0
 12 13  1  6  0  0  0
 13 14  2  0  0  0  0
 14 15  2  0  0  0  0
 12 16  1  0  0  0  0
 16 17  1  1  0  0  0
 17 18  1  0  0  0  0
 16 19  1  0  0  0  0
 10 19  1  0  0  0  0
M  CHG  2  14   1  15  -1
M  END
>  <Catalog ID>
Z754931264

>  <Plate_ID>
2026983-X50-02

>  <Well>
D05

>  <V, µL>
50

>  <Conc, mM>
10

>  <Formula>
C10H13N5O4

>  <MW>
267.2413

>  <Purity>
100

>  <PO>
5A-64168

>  <MW_salt>
0

>  <Stereochem.data>
Single known enantiomer

>  <Geometric.isomer>
None

>  <Chemical name>
1-[(2R,4S,5S)-4-azido-5-(hydroxymethyl)oxolan-2-yl]-5-methyl-1,2,3,4-tetrahydropyrimidine-2,4-dione

>  <ClogP>
0,044

>  <logS>
-0,68

>  <HBD>
2

>  <HBA>
6

>  <TPSA>
108,3

>  <RotBonds>
3

$$$$

  Mrv1925 04172511352D          

 28 31  0  0  0  0            999 V2000
    4.7079    3.7125    0.0000 C   0  0  0  0  0  0  0  0  0  0  0  0
    3.9934    3.3000    0.0000 C   0  0  0  0  0  0  0  0  0  0  0  0
    3.9934    2.4750    0.0000 C   0  0  0  0  0  0  0  0  0  0  0  0
    3.2789    2.0625    0.0000 N   0  0  0  0  0  0  0  0  0  0  0  0
    2.5645    2.4750    0.0000 C   0  0  0  0  0  0  0  0  0  0  0  0
    2.5645    3.3000    0.0000 C   0  0  0  0  0  0  0  0  0  0  0  0
    3.2789    3.7125    0.0000 N   0  0  0  0  0  0  0  0  0  0  0  0
    3.2789    4.5375    0.0000 C   0  0  0  0  0  0  0  0  0  0  0  0
    3.9934    4.9500    0.0000 C   0  0  0  0  0  0  0  0  0  0  0  0
    4.7079    5.3625    0.0000 C   0  0  0  0  0  0  0  0  0  0  0  0
    3.5809    5.6645    0.0000 C   0  0  0  0  0  0  0  0  0  0  0  0
    4.4059    4.2355    0.0000 O   0  0  0  0  0  0  0  0  0  0  0  0
    3.2789    1.2375    0.0000 C   0  0  0  0  0  0  0  0  0  0  0  0
    3.9934    0.8250    0.0000 N   0  0  0  0  0  0  0  0  0  0  0  0
    3.9934    0.0000    0.0000 C   0  0  0  0  0  0  0  0  0  0  0  0
    3.2789   -0.4125    0.0000 N   0  0  0  0  0  0  0  0  0  0  0  0
    2.5645    0.0000    0.0000 C   0  0  0  0  0  0  0  0  0  0  0  0
    2.5645    0.8250    0.0000 C   0  0  0  0  0  0  0  0  0  0  0  0
    1.7798    1.0799    0.0000 N   0  0  0  0  0  0  0  0  0  0  0  0
    1.2949    0.4125    0.0000 C   0  0  0  0  0  0  0  0  0  0  0  0
    1.7798   -0.2549    0.0000 N   0  0  0  0  0  0  0  0  0  0  0  0
    1.5249   -1.0396    0.0000 C   0  0  0  0  0  0  0  0  0  0  0  0
    0.7179   -1.2111    0.0000 C   0  0  0  0  0  0  0  0  0  0  0  0
    0.5464   -0.4041    0.0000 C   0  0  0  0  0  0  0  0  0  0  0  0
   -0.2382   -0.1492    0.0000 O   0  0  0  0  0  0  0  0  0  0  0  0
    0.8895   -2.0181    0.0000 C   0  0  0  0  0  0  0  0  0  0  0  0
    0.0825   -2.1896    0.0000 O   0  0  0  0  0  0  0  0  0  0  0  0
   -0.0890   -1.3826    0.0000 C   0  0  0  0  0  0  0  0  0  0  0  0
  1  2  1  0  0  0  0
  2  3  1  0  0  0  0
  3  4  1  0  0  0  0
  4  5  1  0  0  0  0
  5  6  1  0  0  0  0
  6  7  1  0  0  0  0
  2  7  1  0  0  0  0
  7  8  1  0  0  0  0
  8  9  1  0  0  0  0
  9 10  1  0  0  0  0
  9 11  1  0  0  0  0
  9 12  1  0  0  0  0
  4 13  1  0  0  0  0
 13 14  1  0  0  0  0
 14 15  2  0  0  0  0
 15 16  1  0  0  0  0
 16 17  2  0  0  0  0
 17 18  1  0  0  0  0
 13 18  2  0  0  0  0
 18 19  1  0  0  0  0
 19 20  2  0  0  0  0
 20 21  1  0  0  0  0
 17 21  1  0  0  0  0
 21 22  1  0  0  0  0
 22 23  1  0  0  0  0
 23 24  1  0  0  0  0
 24 25  1  0  0  0  0
 23 26  1  0  0  0  0
 26 27  1  0  0  0  0
 27 28  1  0  0  0  0
 23 28  1  0  0  0  0
M  END
>  <Catalog ID>
Z2760962857

>  <Plate_ID>
2026983-X50-02

>  <Well>
E05

>  <V, µL>
50

>  <Conc, mM>
10

>  <Formula>
C19H30N6O3

>  <MW>
390.4799

>  <Purity>
100

>  <PO>
5A-64168

>  <MW_salt>
0

>  <Stereochem.data>
Racemic or presumed racemic or meso

>  <Geometric.isomer>
None

>  <Chemical name>
1-[4-(9-{[3-(hydroxymethyl)oxetan-3-yl]methyl}-9H-purin-6-yl)-2-methylpiperazin-1-yl]-2-methylpropan-2-ol

>  <ClogP>
-1,019

>  <logS>
-1,86

>  <HBD>
2

>  <HBA>
8

>  <TPSA>
99,77

>  <RotBonds>
6

$$$$

  Mrv1925 04172511352D          

 29 32  0  0  0  0            999 V2000
    4.1764    3.9995    0.0000 O   0  0  0  0  0  0  0  0  0  0  0  0
    3.6914    3.3320    0.0000 C   0  0  0  0  0  0  0  0  0  0  0  0
    3.9464    2.5474    0.0000 C   0  0  0  0  0  0  0  0  0  0  0  0
    3.2789    2.0625    0.0000 N   0  0  0  0  0  0  0  0  0  0  0  0
    2.6115    2.5474    0.0000 C   0  0  0  0  0  0  0  0  0  0  0  0
    2.8664    3.3320    0.0000 N   0  0  0  0  0  0  0  0  0  0  0  0
    2.3815    3.9995    0.0000 C   0  0  0  0  0  0  0  0  0  0  0  0
    2.7171    4.7532    0.0000 C   0  0  0  0  0  0  0  0  0  0  0  0
    3.0526    5.5068    0.0000 F   0  0  0  0  0  0  0  0  0  0  0  0
    1.9634    5.0887    0.0000 F   0  0  0  0  0  0  0  0  0  0  0  0
    3.4707    4.4176    0.0000 F   0  0  0  0  0  0  0  0  0  0  0  0
    3.2789    1.2375    0.0000 C   0  0  0  0  0  0  0  0  0  0  0  0
    3.9934    0.8250    0.0000 N   0  0  0  0  0  0  0  0  0  0  0  0
    3.9934    0.0000    0.0000 C   0  0  0  0  0  0  0  0  0  0  0  0
    3.2789   -0.4125    0.0000 N   0  0  0  0  0  0  0  0  0  0  0  0
    2.5645    0.0000    0.0000 C   0  0  0  0  0  0  0  0  0  0  0  0
    2.5645    0.8250    0.0000 C   0  0  0  0  0  0  0  0  0  0  0  0
    1.7798    1.0799    0.0000 N   0  0  0  0  0  0  0  0  0  0  0  0
    1.2949    0.4125    0.0000 C   0  0  0  0  0  0  0  0  0  0  0  0
    1.7798   -0.2549    0.0000 N   0  0  0  0  0  0  0  0  0  0  0  0
    1.5249   -1.0396    0.0000 C   0  0  0  0  0  0  0  0  0  0  0  0
    2.0769   -1.6527    0.0000 C   0  0  0  0  0  0  0  0  0  0  0  0
    2.8839   -1.4811    0.0000 C   0  0  0  0  0  0  0  0  0  0  0  0
    3.4359   -2.0942    0.0000 O   0  0  0  0  0  0  0  0  0  0  0  0
    1.8220   -2.4373    0.0000 C   0  0  0  0  0  0  0  0  0  0  0  0
    2.3069   -3.1047    0.0000 C   0  0  0  0  0  0  0  0  0  0  0  0
    1.8220   -3.7722    0.0000 C   0  0  0  0  0  0  0  0  0  0  0  0
    1.0374   -3.5172    0.0000 O   0  0  0  0  0  0  0  0  0  0  0  0
    1.0374   -2.6922    0.0000 C   0  0  0  0  0  0  0  0  0  0  0  0
  1  2  2  0  0  0  0
  2  3  1  0  0  0  0
  3  4  1  0  0  0  0
  4  5  1  0  0  0  0
  5  6  1  0  0  0  0
  2  6  1  0  0  0  0
  6  7  1  0  0  0  0
  7  8  1  0  0  0  0
  8  9  1  0  0  0  0
  8 10  1  0  0  0  0
  8 11  1  0  0  0  0
  4 12  1  0  0  0  0
 12 13  1  0  0  0  0
 13 14  2  0  0  0  0
 14 15  1  0  0  0  0
 15 16  2  0  0  0  0
 16 17  1  0  0  0  0
 12 17  2  0  0  0  0
 17 18  1  0  0  0  0
 18 19  2  0  0  0  0
 19 20  1  0  0  0  0
 16 20  1  0  0  0  0
 20 21  1  0  0  0  0
 21 22  1  0  0  0  0
 22 23  1  0  0  0  0
 23 24  1  0  0  0  0
 22 25  1  0  0  0  0
 25 26  1  0  0  0  0
 26 27  1  0  0  0  0
 27 28  1  0  0  0  0
 28 29  1  0  0  0  0
 25 29  1  0  0  0  0
M  END
>  <Catalog ID>
Z2760968725

>  <Plate_ID>
2026983-X50-02

>  <Well>
F05

>  <V, µL>
50

>  <Conc, mM>
10

>  <Formula>
C17H21F3N6O3

>  <MW>
414.3822

>  <Purity>
100

>  <PO>
5A-64168

>  <MW_salt>
0

>  <Stereochem.data>
Diastereomeric mixture

>  <Geometric.isomer>
None

>  <Chemical name>
1-{9-[3-hydroxy-2-(oxolan-3-yl)propyl]-9H-purin-6-yl}-3-(2,2,2-trifluoroethyl)imidazolidin-4-one

>  <ClogP>
-0,641

>  <logS>
-3,464

>  <HBD>
1

>  <HBA>
7

>  <TPSA>
96,61

>  <RotBonds>
7

$$$$

  Mrv1925 04172511352D          

 27 31  0  0  0  0            999 V2000
   -4.7188    3.2708    0.0000 O   0  0  0  0  0  0  0  0  0  0  0  0
   -4.5473    2.4638    0.0000 C   0  0  0  0  0  0  0  0  0  0  0  0
   -3.7627    2.2089    0.0000 C   0  0  0  0  0  0  0  0  0  0  0  0
   -3.5911    1.4019    0.0000 C   0  0  0  0  0  0  0  0  0  0  0  0
   -2.8065    1.1470    0.0000 N   0  0  0  0  0  0  0  0  0  0  0  0
   -2.1391    1.6319    0.0000 C   0  0  0  0  0  0  0  0  0  0  0  0
   -1.4716    1.1470    0.0000 N   0  0  0  0  0  0  0  0  0  0  0  0
   -1.7266    0.3624    0.0000 C   0  0  0  0  0  0  0  0  0  0  0  0
   -1.3141   -0.3521    0.0000 C   0  0  0  0  0  0  0  0  0  0  0  0
   -1.7266   -1.0666    0.0000 N   0  0  0  0  0  0  0  0  0  0  0  0
   -2.5516   -1.0666    0.0000 C   0  0  0  0  0  0  0  0  0  0  0  0
   -2.9641   -0.3521    0.0000 N   0  0  0  0  0  0  0  0  0  0  0  0
   -2.5516    0.3624    0.0000 C   0  0  0  0  0  0  0  0  0  0  0  0
   -0.4891   -0.3521    0.0000 N   0  0  0  0  0  0  0  0  0  0  0  0
   -0.2828   -1.1771    0.0000 C   0  0  0  0  0  0  0  0  0  0  0  0
   -0.9973   -0.7646    0.0000 C   0  0  0  0  0  0  0  0  0  0  0  0
   -0.9973    0.0604    0.0000 C   0  0  0  0  0  0  0  0  0  0  0  0
   -0.2828    0.4729    0.0000 C   0  0  0  0  0  0  0  0  0  0  0  0
    0.4316    0.0604    0.0000 C   0  0  0  0  0  0  0  0  0  0  0  0
    1.1461    0.4729    0.0000 C   0  0  0  0  0  0  0  0  0  0  0  0
    1.1461    1.2979    0.0000 O   0  0  0  0  0  0  0  0  0  0  0  0
    0.4316   -0.7646    0.0000 C   0  0  0  0  0  0  0  0  0  0  0  0
   -3.1496    2.7609    0.0000 C   0  0  0  0  0  0  0  0  0  0  0  0
   -3.2358    3.5814    0.0000 C   0  0  0  0  0  0  0  0  0  0  0  0
   -2.4821    3.9170    0.0000 C   0  0  0  0  0  0  0  0  0  0  0  0
   -1.9301    3.3039    0.0000 O   0  0  0  0  0  0  0  0  0  0  0  0
   -2.3426    2.5894    0.0000 C   0  0  0  0  0  0  0  0  0  0  0  0
  1  2  1  0  0  0  0
  2  3  1  0  0  0  0
  3  4  1  0  0  0  0
  4  5  1  0  0  0  0
  5  6  1  0  0  0  0
  6  7  2  0  0  0  0
  7  8  1  0  0  0  0
  8  9  2  0  0  0  0
  9 10  1  0  0  0  0
 10 11  2  0  0  0  0
 11 12  1  0  0  0  0
 12 13  2  0  0  0  0
  8 13  1  0  0  0  0
  5 13  1  0  0  0  0
  9 14  1  0  0  0  0
 14 15  1  0  0  0  0
 15 16  1  0  0  0  0
 16 17  1  0  0  0  0
 17 18  1  0  0  0  0
 14 18  1  0  0  0  0
 18 19  1  0  0  0  0
 19 20  1  0  0  0  0
 20 21  1  0  0  0  0
 19 22  1  0  0  0  0
 15 22  1  0  0  0  0
  3 23  1  0  0  0  0
 23 24  1  0  0  0  0
 24 25  1  0  0  0  0
 25 26  1  0  0  0  0
 26 27  1  0  0  0  0
 23 27  1  0  0  0  0
M  END
>  <Catalog ID>
Z2760974085

>  <Plate_ID>
2026983-X50-02

>  <Well>
G05

>  <V, µL>
50

>  <Conc, mM>
10

>  <Formula>
C19H27N5O3

>  <MW>
373.4494

>  <Purity>
100

>  <PO>
5A-64168

>  <MW_salt>
0

>  <Stereochem.data>
Diastereomeric mixture

>  <Geometric.isomer>
None

>  <Chemical name>
3-{6-[2-(hydroxymethyl)-7-azabicyclo[2.2.1]heptan-7-yl]-9H-purin-9-yl}-2-(oxolan-3-yl)propan-1-ol

>  <ClogP>
-0,893

>  <logS>
-2,282

>  <HBD>
2

>  <HBA>
7

>  <TPSA>
96,53

>  <RotBonds>
6

$$$$

  Mrv1925 04172511352D          

 27 30  0  0  0  0            999 V2000
    3.9934    4.9500    0.0000 C   0  0  0  0  0  0  0  0  0  0  0  0
    3.2789    4.5375    0.0000 N   0  0  0  0  0  0  0  0  0  0  0  0
    2.5645    4.9500    0.0000 C   0  0  0  0  0  0  0  0  0  0  0  0
    2.5645    5.7750    0.0000 C   0  0  0  0  0  0  0  0  0  0  0  0
    1.8500    6.1875    0.0000 O   0  0  0  0  0  0  0  0  0  0  0  0
    3.2789    3.7125    0.0000 C   0  0  0  0  0  0  0  0  0  0  0  0
    3.9934    3.3000    0.0000 C   0  0  0  0  0  0  0  0  0  0  0  0
    3.9934    2.4750    0.0000 C   0  0  0  0  0  0  0  0  0  0  0  0
    3.2789    2.0625    0.0000 N   0  0  0  0  0  0  0  0  0  0  0  0
    2.5645    2.4750    0.0000 C   0  0  0  0  0  0  0  0  0  0  0  0
    2.5645    3.3000    0.0000 C   0  0  0  0  0  0  0  0  0  0  0  0
    3.2789    1.2375    0.0000 C   0  0  0  0  0  0  0  0  0  0  0  0
    3.9934    0.8250    0.0000 N   0  0  0  0  0  0  0  0  0  0  0  0
    3.9934    0.0000    0.0000 C   0  0  0  0  0  0  0  0  0  0  0  0
    3.2789   -0.4125    0.0000 N   0  0  0  0  0  0  0  0  0  0  0  0
    2.5645    0.0000    0.0000 C   0  0  0  0  0  0  0  0  0  0  0  0
    2.5645    0.8250    0.0000 C   0  0  0  0  0  0  0  0  0  0  0  0
    1.7798    1.0799    0.0000 N   0  0  0  0  0  0  0  0  0  0  0  0
    1.2949    0.4125    0.0000 C   0  0  0  0  0  0  0  0  0  0  0  0
    1.7798   -0.2549    0.0000 N   0  0  0  0  0  0  0  0  0  0  0  0
    1.5249   -1.0396    0.0000 C   0  0  0  0  0  0  0  0  0  0  0  0
    2.0769   -1.6527    0.0000 C   0  0  0  0  0  0  0  0  0  0  0  0
    1.4095   -2.1376    0.0000 O   0  0  0  0  0  0  0  0  0  0  0  0
    2.6290   -1.0396    0.0000 C   0  0  0  0  0  0  0  0  0  0  0  0
    3.3826   -1.3751    0.0000 C   0  0  0  0  0  0  0  0  0  0  0  0
    3.2964   -2.1956    0.0000 O   0  0  0  0  0  0  0  0  0  0  0  0
    2.4894   -2.3671    0.0000 C   0  0  0  0  0  0  0  0  0  0  0  0
  1  2  1  0  0  0  0
  2  3  1  0  0  0  0
  3  4  1  0  0  0  0
  4  5  1  0  0  0  0
  2  6  1  0  0  0  0
  6  7  1  0  0  0  0
  7  8  1  0  0  0  0
  8  9  1  0  0  0  0
  9 10  1  0  0  0  0
 10 11  1  0  0  0  0
  6 11  1  0  0  0  0
  9 12  1  0  0  0  0
 12 13  1  0  0  0  0
 13 14  2  0  0  0  0
 14 15  1  0  0  0  0
 15 16  2  0  0  0  0
 16 17  1  0  0  0  0
 12 17  2  0  0  0  0
 17 18  1  0  0  0  0
 18 19  2  0  0  0  0
 19 20  1  0  0  0  0
 16 20  1  0  0  0  0
 20 21  1  0  0  0  0
 21 22  1  0  0  0  0
 22 23  1  0  0  0  0
 22 24  1  0  0  0  0
 24 25  1  0  0  0  0
 25 26  1  0  0  0  0
 26 27  1  0  0  0  0
 22 27  1  0  0  0  0
M  END
>  <Catalog ID>
Z2760959656

>  <Plate_ID>
2026983-X50-02

>  <Well>
H05

>  <V, µL>
50

>  <Conc, mM>
10

>  <Formula>
C18H28N6O3

>  <MW>
376.4533

>  <Purity>
100

>  <PO>
5A-64168

>  <MW_salt>
0

>  <Stereochem.data>
Racemic or presumed racemic or meso

>  <Geometric.isomer>
None

>  <Chemical name>
3-[(6-{4-[(2-hydroxyethyl)(methyl)amino]piperidin-1-yl}-9H-purin-9-yl)methyl]oxolan-3-ol

>  <ClogP>
-1,422

>  <logS>
-2,374

>  <HBD>
2

>  <HBA>
8

>  <TPSA>
99,77

>  <RotBonds>
6

$$$$

  Mrv1925 04172511352D          

 26 28  0  0  0  0            999 V2000
   -1.9520   -3.6020    0.0000 C   0  0  0  0  0  0  0  0  0  0  0  0
   -1.1270   -3.6020    0.0000 C   0  0  0  0  0  0  0  0  0  0  0  0
   -0.7145   -2.8875    0.0000 N   0  0  0  0  0  0  0  0  0  0  0  0
    0.1105   -2.8875    0.0000 C   0  0  0  0  0  0  0  0  0  0  0  0
    0.5230   -3.6020    0.0000 O   0  0  0  0  0  0  0  0  0  0  0  0
    0.5230   -2.1730    0.0000 C   0  0  0  0  0  0  0  0  0  0  0  0
    1.3480   -2.1730    0.0000 N   0  0  0  0  0  0  0  0  0  0  0  0
    1.7605   -2.8875    0.0000 C   0  0  0  0  0  0  0  0  0  0  0  0
    1.3480   -3.6020    0.0000 C   0  0  0  0  0  0  0  0  0  0  0  0
    1.7605   -1.4586    0.0000 C   0  0  0  0  0  0  0  0  0  0  0  0
    1.3480   -0.7441    0.0000 N   0  0  0  0  0  0  0  0  0  0  0  0
    1.7605   -0.0296    0.0000 C   0  0  0  0  0  0  0  0  0  0  0  0
    2.5855   -0.0296    0.0000 N   0  0  0  0  0  0  0  0  0  0  0  0
    2.9980   -0.7441    0.0000 C   0  0  0  0  0  0  0  0  0  0  0  0
    2.5855   -1.4586    0.0000 C   0  0  0  0  0  0  0  0  0  0  0  0
    3.1376   -2.0717    0.0000 N   0  0  0  0  0  0  0  0  0  0  0  0
    3.8912   -1.7361    0.0000 C   0  0  0  0  0  0  0  0  0  0  0  0
    3.8050   -0.9156    0.0000 N   0  0  0  0  0  0  0  0  0  0  0  0
    4.4181   -0.3636    0.0000 C   0  0  0  0  0  0  0  0  0  0  0  0
    5.2027   -0.6185    0.0000 C   0  0  0  0  0  0  0  0  0  0  0  0
    4.8154   -1.3470    0.0000 O   0  0  0  0  0  0  0  0  0  0  0  0
    5.3175    0.1985    0.0000 C   0  0  0  0  0  0  0  0  0  0  0  0
    6.0825    0.5075    0.0000 C   0  0  0  0  0  0  0  0  0  0  0  0
    6.7326   -0.0004    0.0000 O   0  0  0  0  0  0  0  0  0  0  0  0
    6.6178   -0.8174    0.0000 C   0  0  0  0  0  0  0  0  0  0  0  0
    5.8528   -1.1264    0.0000 C   0  0  0  0  0  0  0  0  0  0  0  0
  1  2  1  0  0  0  0
  2  3  1  0  0  0  0
  3  4  1  0  0  0  0
  4  5  2  0  0  0  0
  4  6  1  0  0  0  0
  6  7  1  0  0  0  0
  7  8  1  0  0  0  0
  8  9  1  0  0  0  0
  7 10  1  0  0  0  0
 10 11  1  0  0  0  0
 11 12  2  0  0  0  0
 12 13  1  0  0  0  0
 13 14  2  0  0  0  0
 14 15  1  0  0  0  0
 10 15  2  0  0  0  0
 15 16  1  0  0  0  0
 16 17  2  0  0  0  0
 17 18  1  0  0  0  0
 14 18  1  0  0  0  0
 18 19  1  0  0  0  0
 19 20  1  0  0  0  0
 20 21  1  0  0  0  0
 20 22  1  0  0  0  0
 22 23  1  0  0  0  0
 23 24  1  0  0  0  0
 24 25  1  0  0  0  0
 25 26  1  0  0  0  0
 20 26  1  0  0  0  0
M  END
>  <Catalog ID>
Z2760939441

>  <Plate_ID>
2026983-X50-02

>  <Well>
A06

>  <V, µL>
50

>  <Conc, mM>
10

>  <Formula>
C17H26N6O3

>  <MW>
362.4267

>  <Purity>
100

>  <PO>
5A-64168

>  <MW_salt>
0

>  <Stereochem.data>
Achiral

>  <Geometric.isomer>
None

>  <Chemical name>
N-ethyl-2-[ethyl({9-[(4-hydroxyoxan-4-yl)methyl]-9H-purin-6-yl})amino]acetamide

>  <ClogP>
-0,743

>  <logS>
-2,74

>  <HBD>
2

>  <HBA>
7

>  <TPSA>
105,4

>  <RotBonds>
7

$$$$

  Mrv1925 04172511352D          

 27 29  0  0  0  0            999 V2000
   -2.0647   -4.1802    0.0000 O   0  0  0  0  0  0  0  0  0  0  0  0
   -1.5246   -3.5566    0.0000 C   0  0  0  0  0  0  0  0  0  0  0  0
   -0.7145   -3.7125    0.0000 C   0  0  0  0  0  0  0  0  0  0  0  0
   -0.1744   -3.0889    0.0000 O   0  0  0  0  0  0  0  0  0  0  0  0
    0.6358   -3.2448    0.0000 C   0  0  0  0  0  0  0  0  0  0  0  0
    1.1758   -2.6211    0.0000 C   0  0  0  0  0  0  0  0  0  0  0  0
    1.9860   -2.7770    0.0000 N   0  0  0  0  0  0  0  0  0  0  0  0
    2.2560   -3.5566    0.0000 C   0  0  0  0  0  0  0  0  0  0  0  0
    3.0662   -3.7125    0.0000 C   0  0  0  0  0  0  0  0  0  0  0  0
    3.3362   -4.4921    0.0000 O   0  0  0  0  0  0  0  0  0  0  0  0
    2.5261   -2.1534    0.0000 C   0  0  0  0  0  0  0  0  0  0  0  0
    2.2560   -1.3738    0.0000 N   0  0  0  0  0  0  0  0  0  0  0  0
    2.7961   -0.7502    0.0000 C   0  0  0  0  0  0  0  0  0  0  0  0
    3.6062   -0.9061    0.0000 N   0  0  0  0  0  0  0  0  0  0  0  0
    3.8763   -1.6857    0.0000 C   0  0  0  0  0  0  0  0  0  0  0  0
    3.3362   -2.3093    0.0000 C   0  0  0  0  0  0  0  0  0  0  0  0
    3.7624   -3.0157    0.0000 N   0  0  0  0  0  0  0  0  0  0  0  0
    4.5659   -2.8286    0.0000 C   0  0  0  0  0  0  0  0  0  0  0  0
    4.6363   -2.0066    0.0000 N   0  0  0  0  0  0  0  0  0  0  0  0
    5.3427   -1.5804    0.0000 C   0  0  0  0  0  0  0  0  0  0  0  0
    5.5408   -0.7795    0.0000 C   0  0  0  0  0  0  0  0  0  0  0  0
    6.3416   -0.9776    0.0000 C   0  0  0  0  0  0  0  0  0  0  0  0
    6.5397   -0.1768    0.0000 C   0  0  0  0  0  0  0  0  0  0  0  0
    5.9452    0.3952    0.0000 O   0  0  0  0  0  0  0  0  0  0  0  0
    7.1425   -1.1757    0.0000 C   0  0  0  0  0  0  0  0  0  0  0  0
    7.3714   -1.9683    0.0000 O   0  0  0  0  0  0  0  0  0  0  0  0
    6.1435   -1.7785    0.0000 C   0  0  0  0  0  0  0  0  0  0  0  0
  1  2  1  0  0  0  0
  2  3  1  0  0  0  0
  3  4  1  0  0  0  0
  4  5  1  0  0  0  0
  5  6  1  0  0  0  0
  6  7  1  0  0  0  0
  7  8  1  0  0  0  0
  8  9  1  0  0  0  0
  9 10  1  0  0  0  0
  7 11  1  0  0  0  0
 11 12  1  0  0  0  0
 12 13  2  0  0  0  0
 13 14  1  0  0  0  0
 14 15  2  0  0  0  0
 15 16  1  0  0  0  0
 11 16  2  0  0  0  0
 16 17  1  0  0  0  0
 17 18  2  0  0  0  0
 18 19  1  0  0  0  0
 15 19  1  0  0  0  0
 19 20  1  0  0  0  0
 20 21  1  0  0  0  0
 21 22  1  0  0  0  0
 22 23  1  0  0  0  0
 23 24  1  0  0  0  0
 22 25  1  0  0  0  0
 25 26  1  0  0  0  0
 22 27  1  0  0  0  0
 20 27  1  0  0  0  0
M  END
>  <Catalog ID>
Z2760977749

>  <Plate_ID>
2026983-X50-02

>  <Well>
B06

>  <V, µL>
50

>  <Conc, mM>
10

>  <Formula>
C17H27N5O5

>  <MW>
381.4268

>  <Purity>
90.49

>  <PO>
5A-64168

>  <MW_salt>
0

>  <Stereochem.data>
Achiral

>  <Geometric.isomer>
None

>  <Chemical name>
2-({9-[3,3-bis(hydroxymethyl)cyclobutyl]-9H-purin-6-yl}[2-(2-hydroxyethoxy)ethyl]amino)ethan-1-ol

>  <ClogP>
-2,301

>  <logS>
-0,613

>  <HBD>
4

>  <HBA>
9

>  <TPSA>
136,99

>  <RotBonds>
11

$$$$

  Mrv1925 04172511352D          

 27 30  0  0  0  0            999 V2000
    2.5645    6.6000    0.0000 N   0  0  0  0  0  0  0  0  0  0  0  0
    2.5645    5.7750    0.0000 C   0  0  0  0  0  0  0  0  0  0  0  0
    2.5645    4.9500    0.0000 C   0  0  0  0  0  0  0  0  0  0  0  0
    3.2789    4.5375    0.0000 C   0  0  0  0  0  0  0  0  0  0  0  0
    3.9934    4.9500    0.0000 O   0  0  0  0  0  0  0  0  0  0  0  0
    3.2789    3.7125    0.0000 N   0  0  0  0  0  0  0  0  0  0  0  0
    3.9934    3.3000    0.0000 C   0  0  0  0  0  0  0  0  0  0  0  0
    3.9934    2.4750    0.0000 C   0  0  0  0  0  0  0  0  0  0  0  0
    3.2789    2.0625    0.0000 N   0  0  0  0  0  0  0  0  0  0  0  0
    2.5645    2.4750    0.0000 C   0  0  0  0  0  0  0  0  0  0  0  0
    2.5645    3.3000    0.0000 C   0  0  0  0  0  0  0  0  0  0  0  0
    3.2789    1.2375    0.0000 C   0  0  0  0  0  0  0  0  0  0  0  0
    3.9934    0.8250    0.0000 N   0  0  0  0  0  0  0  0  0  0  0  0
    3.9934    0.0000    0.0000 C   0  0  0  0  0  0  0  0  0  0  0  0
    3.2789   -0.4125    0.0000 N   0  0  0  0  0  0  0  0  0  0  0  0
    2.5645    0.0000    0.0000 C   0  0  0  0  0  0  0  0  0  0  0  0
    2.5645    0.8250    0.0000 C   0  0  0  0  0  0  0  0  0  0  0  0
    1.7798    1.0799    0.0000 N   0  0  0  0  0  0  0  0  0  0  0  0
    1.2949    0.4125    0.0000 C   0  0  0  0  0  0  0  0  0  0  0  0
    1.7798   -0.2549    0.0000 N   0  0  0  0  0  0  0  0  0  0  0  0
    1.5249   -1.0396    0.0000 C   0  0  0  0  0  0  0  0  0  0  0  0
    2.0769   -1.6527    0.0000 C   0  0  0  0  0  0  0  0  0  0  0  0
    1.4095   -2.1376    0.0000 O   0  0  0  0  0  0  0  0  0  0  0  0
    2.6290   -1.0396    0.0000 C   0  0  0  0  0  0  0  0  0  0  0  0
    3.3826   -1.3751    0.0000 C   0  0  0  0  0  0  0  0  0  0  0  0
    3.2964   -2.1956    0.0000 O   0  0  0  0  0  0  0  0  0  0  0  0
    2.4894   -2.3671    0.0000 C   0  0  0  0  0  0  0  0  0  0  0  0
  1  2  3  0  0  0  0
  2  3  1  0  0  0  0
  3  4  1  0  0  0  0
  4  5  2  0  0  0  0
  4  6  1  0  0  0  0
  6  7  1  0  0  0  0
  7  8  1  0  0  0  0
  8  9  1  0  0  0  0
  9 10  1  0  0  0  0
 10 11  1  0  0  0  0
  6 11  1  0  0  0  0
  9 12  1  0  0  0  0
 12 13  1  0  0  0  0
 13 14  2  0  0  0  0
 14 15  1  0  0  0  0
 15 16  2  0  0  0  0
 16 17  1  0  0  0  0
 12 17  2  0  0  0  0
 17 18  1  0  0  0  0
 18 19  2  0  0  0  0
 19 20  1  0  0  0  0
 16 20  1  0  0  0  0
 20 21  1  0  0  0  0
 21 22  1  0  0  0  0
 22 23  1  0  0  0  0
 22 24  1  0  0  0  0
 24 25  1  0  0  0  0
 25 26  1  0  0  0  0
 26 27  1  0  0  0  0
 22 27  1  0  0  0  0
M  END
>  <Catalog ID>
Z2760954293

>  <Plate_ID>
2026983-X50-02

>  <Well>
C06

>  <V, µL>
50

>  <Conc, mM>
10

>  <Formula>
C17H21N7O3

>  <MW>
371.3937

>  <Purity>
100

>  <PO>
5A-64168

>  <MW_salt>
0

>  <Stereochem.data>
Racemic or presumed racemic or meso

>  <Geometric.isomer>
None

>  <Chemical name>
3-(4-{9-[(3-hydroxyoxolan-3-yl)methyl]-9H-purin-6-yl}piperazin-1-yl)-3-oxopropanenitrile

>  <ClogP>
-1,561

>  <logS>
-2,355

>  <HBD>
1

>  <HBA>
8

>  <TPSA>
120,4

>  <RotBonds>
4

$$$$

  Mrv1925 04172511352D          

 28 32  0  0  0  0            999 V2000
    0.6411    1.3646    0.0000 C   0  0  0  0  0  0  0  0  0  0  0  0
    1.3556    0.9521    0.0000 N   0  0  0  0  0  0  0  0  0  0  0  0
    1.3556    0.1271    0.0000 C   0  0  0  0  0  0  0  0  0  0  0  0
    2.0701   -0.2854    0.0000 C   0  0  0  0  0  0  0  0  0  0  0  0
    2.7845    0.1271    0.0000 C   0  0  0  0  0  0  0  0  0  0  0  0
    2.7845    0.9521    0.0000 C   0  0  0  0  0  0  0  0  0  0  0  0
    3.4990    1.3646    0.0000 C   0  0  0  0  0  0  0  0  0  0  0  0
    4.2135    0.9521    0.0000 C   0  0  0  0  0  0  0  0  0  0  0  0
    4.2135    0.1271    0.0000 C   0  0  0  0  0  0  0  0  0  0  0  0
    3.4990   -0.2854    0.0000 N   0  0  0  0  0  0  0  0  0  0  0  0
    3.4990   -1.1104    0.0000 C   0  0  0  0  0  0  0  0  0  0  0  0
    4.2135   -1.5229    0.0000 N   0  0  0  0  0  0  0  0  0  0  0  0
    4.2135   -2.3479    0.0000 C   0  0  0  0  0  0  0  0  0  0  0  0
    3.4990   -2.7604    0.0000 N   0  0  0  0  0  0  0  0  0  0  0  0
    2.7845   -2.3479    0.0000 C   0  0  0  0  0  0  0  0  0  0  0  0
    2.7845   -1.5229    0.0000 C   0  0  0  0  0  0  0  0  0  0  0  0
    1.9999   -1.2680    0.0000 N   0  0  0  0  0  0  0  0  0  0  0  0
    1.5150   -1.9354    0.0000 C   0  0  0  0  0  0  0  0  0  0  0  0
    1.9999   -2.6029    0.0000 N   0  0  0  0  0  0  0  0  0  0  0  0
    1.7450   -3.3875    0.0000 C   0  0  0  0  0  0  0  0  0  0  0  0
    2.1195   -4.1226    0.0000 C   0  0  0  0  0  0  0  0  0  0  0  0
    1.3844   -4.4971    0.0000 C   0  0  0  0  0  0  0  0  0  0  0  0
    1.7590   -5.2322    0.0000 C   0  0  0  0  0  0  0  0  0  0  0  0
    2.5828   -5.2754    0.0000 O   0  0  0  0  0  0  0  0  0  0  0  0
    0.6493   -4.8717    0.0000 C   0  0  0  0  0  0  0  0  0  0  0  0
   -0.0426   -4.4223    0.0000 O   0  0  0  0  0  0  0  0  0  0  0  0
    1.0099   -3.7620    0.0000 C   0  0  0  0  0  0  0  0  0  0  0  0
    2.0701    1.3646    0.0000 C   0  0  0  0  0  0  0  0  0  0  0  0
  1  2  1  0  0  0  0
  2  3  1  0  0  0  0
  3  4  1  0  0  0  0
  4  5  1  0  0  0  0
  5  6  1  0  0  0  0
  6  7  1  0  0  0  0
  7  8  1  0  0  0  0
  8  9  1  0  0  0  0
  9 10  1  0  0  0  0
  5 10  1  0  0  0  0
 10 11  1  0  0  0  0
 11 12  1  0  0  0  0
 12 13  2  0  0  0  0
 13 14  1  0  0  0  0
 14 15  2  0  0  0  0
 15 16  1  0  0  0  0
 11 16  2  0  0  0  0
 16 17  1  0  0  0  0
 17 18  2  0  0  0  0
 18 19  1  0  0  0  0
 15 19  1  0  0  0  0
 19 20  1  0  0  0  0
 20 21  1  0  0  0  0
 21 22  1  0  0  0  0
 22 23  1  0  0  0  0
 23 24  1  0  0  0  0
 22 25  1  0  0  0  0
 25 26  1  0  0  0  0
 22 27  1  0  0  0  0
 20 27  1  0  0  0  0
  6 28  1  0  0  0  0
  2 28  1  0  0  0  0
M  END
>  <Catalog ID>
Z2760954340

>  <Plate_ID>
2026983-X50-02

>  <Well>
D06

>  <V, µL>
50

>  <Conc, mM>
10

>  <Formula>
C20H30N6O2

>  <MW>
386.4912

>  <Purity>
97.69

>  <PO>
5A-64168

>  <MW_salt>
0

>  <Stereochem.data>
Diastereomeric mixture

>  <Geometric.isomer>
Unknown

>  <Chemical name>
[1-(hydroxymethyl)-3-[6-(6-methyl-decahydro-1,6-naphthyridin-1-yl)-9H-purin-9-yl]cyclobutyl]methanol

>  <ClogP>
-0,368

>  <logS>
-1,804

>  <HBD>
2

>  <HBA>
7

>  <TPSA>
90,54

>  <RotBonds>
4

$$$$

  Mrv1925 04172511352D          

 30 34  0  0  0  0            999 V2000
    2.7607   -2.2278    0.0000 O   0  0  0  0  0  0  0  0  0  0  0  0
    1.9437   -2.1130    0.0000 C   0  0  0  0  0  0  0  0  0  0  0  0
    1.4358   -2.7631    0.0000 C   0  0  0  0  0  0  0  0  0  0  0  0
    0.8838   -2.1500    0.0000 C   0  0  0  0  0  0  0  0  0  0  0  0
    1.1387   -1.3654    0.0000 N   0  0  0  0  0  0  0  0  0  0  0  0
    0.6538   -0.6979    0.0000 C   0  0  0  0  0  0  0  0  0  0  0  0
    1.1387   -0.0305    0.0000 N   0  0  0  0  0  0  0  0  0  0  0  0
    1.9233   -0.2854    0.0000 C   0  0  0  0  0  0  0  0  0  0  0  0
    2.6378    0.1271    0.0000 C   0  0  0  0  0  0  0  0  0  0  0  0
    3.3523   -0.2854    0.0000 N   0  0  0  0  0  0  0  0  0  0  0  0
    3.3523   -1.1104    0.0000 C   0  0  0  0  0  0  0  0  0  0  0  0
    2.6378   -1.5229    0.0000 N   0  0  0  0  0  0  0  0  0  0  0  0
    1.9233   -1.1104    0.0000 C   0  0  0  0  0  0  0  0  0  0  0  0
    2.6378    0.9521    0.0000 N   0  0  0  0  0  0  0  0  0  0  0  0
    1.9704    1.4370    0.0000 C   0  0  0  0  0  0  0  0  0  0  0  0
    2.2253    2.2216    0.0000 C   0  0  0  0  0  0  0  0  0  0  0  0
    3.0503    2.2216    0.0000 C   0  0  0  0  0  0  0  0  0  0  0  0
    3.3053    1.4370    0.0000 C   0  0  0  0  0  0  0  0  0  0  0  0
    4.0899    1.1820    0.0000 C   0  0  0  0  0  0  0  0  0  0  0  0
    4.2614    0.3751    0.0000 C   0  0  0  0  0  0  0  0  0  0  0  0
    5.0460    0.1201    0.0000 O   0  0  0  0  0  0  0  0  0  0  0  0
    5.6591    0.6722    0.0000 C   0  0  0  0  0  0  0  0  0  0  0  0
    5.4876    1.4791    0.0000 C   0  0  0  0  0  0  0  0  0  0  0  0
    4.7030    1.7341    0.0000 C   0  0  0  0  0  0  0  0  0  0  0  0
    4.5314    2.5410    0.0000 O   0  0  0  0  0  0  0  0  0  0  0  0
    2.1642   -3.1504    0.0000 C   0  0  0  0  0  0  0  0  0  0  0  0
    2.1930   -3.9749    0.0000 C   0  0  0  0  0  0  0  0  0  0  0  0
    1.4934   -4.4121    0.0000 O   0  0  0  0  0  0  0  0  0  0  0  0
    0.7650   -4.0248    0.0000 C   0  0  0  0  0  0  0  0  0  0  0  0
    0.7362   -3.2003    0.0000 C   0  0  0  0  0  0  0  0  0  0  0  0
  1  2  1  0  0  0  0
  2  3  1  0  0  0  0
  3  4  1  0  0  0  0
  4  5  1  0  0  0  0
  5  6  1  0  0  0  0
  6  7  2  0  0  0  0
  7  8  1  0  0  0  0
  8  9  2  0  0  0  0
  9 10  1  0  0  0  0
 10 11  2  0  0  0  0
 11 12  1  0  0  0  0
 12 13  2  0  0  0  0
  8 13  1  0  0  0  0
  5 13  1  0  0  0  0
  9 14  1  0  0  0  0
 14 15  1  0  0  0  0
 15 16  1  0  0  0  0
 16 17  1  0  0  0  0
 17 18  1  0  0  0  0
 14 18  1  0  0  0  0
 18 19  1  0  0  0  0
 19 20  1  0  0  0  0
 20 21  1  0  0  0  0
 21 22  1  0  0  0  0
 22 23  1  0  0  0  0
 23 24  1  0  0  0  0
 19 24  1  0  0  0  0
 24 25  1  0  0  0  0
  3 26  1  0  0  0  0
 26 27  1  0  0  0  0
 27 28  1  0  0  0  0
 28 29  1  0  0  0  0
 29 30  1  0  0  0  0
  3 30  1  0  0  0  0
M  END
>  <Catalog ID>
Z2760966596

>  <Plate_ID>
2026983-X50-02

>  <Well>
E06

>  <V, µL>
50

>  <Conc, mM>
10

>  <Formula>
C21H31N5O4

>  <MW>
417.5019

>  <Purity>
100

>  <PO>
5A-64168

>  <MW_salt>
0

>  <Stereochem.data>
Diastereomeric mixture

>  <Geometric.isomer>
None

>  <Chemical name>
3-[1-(9-{[4-(hydroxymethyl)oxan-4-yl]methyl}-9H-purin-6-yl)pyrrolidin-2-yl]oxan-4-ol

>  <ClogP>
-2,147

>  <logS>
-2,14

>  <HBD>
2

>  <HBA>
8

>  <TPSA>
105,76

>  <RotBonds>
5

$$$$

  Mrv1925 04172511352D          

 29 32  0  0  0  0            999 V2000
    3.0800    6.7197    0.0000 C   0  0  0  0  0  0  0  0  0  0  0  0
    2.6153    6.0380    0.0000 N   0  0  0  0  0  0  0  0  0  0  0  0
    1.7926    6.0997    0.0000 C   0  0  0  0  0  0  0  0  0  0  0  0
    2.9732    5.2947    0.0000 C   0  0  0  0  0  0  0  0  0  0  0  0
    2.5085    4.6131    0.0000 C   0  0  0  0  0  0  0  0  0  0  0  0
    2.8664    3.8698    0.0000 N   0  0  0  0  0  0  0  0  0  0  0  0
    3.6914    3.8698    0.0000 C   0  0  0  0  0  0  0  0  0  0  0  0
    4.2058    3.2248    0.0000 C   0  0  0  0  0  0  0  0  0  0  0  0
    4.0222    2.4205    0.0000 C   0  0  0  0  0  0  0  0  0  0  0  0
    3.2789    2.0625    0.0000 N   0  0  0  0  0  0  0  0  0  0  0  0
    2.5356    2.4205    0.0000 C   0  0  0  0  0  0  0  0  0  0  0  0
    2.3520    3.2248    0.0000 C   0  0  0  0  0  0  0  0  0  0  0  0
    3.2789    1.2375    0.0000 C   0  0  0  0  0  0  0  0  0  0  0  0
    3.9934    0.8250    0.0000 N   0  0  0  0  0  0  0  0  0  0  0  0
    3.9934    0.0000    0.0000 C   0  0  0  0  0  0  0  0  0  0  0  0
    3.2789   -0.4125    0.0000 N   0  0  0  0  0  0  0  0  0  0  0  0
    2.5645    0.0000    0.0000 C   0  0  0  0  0  0  0  0  0  0  0  0
    2.5645    0.8250    0.0000 C   0  0  0  0  0  0  0  0  0  0  0  0
    1.7798    1.0799    0.0000 N   0  0  0  0  0  0  0  0  0  0  0  0
    1.2949    0.4125    0.0000 C   0  0  0  0  0  0  0  0  0  0  0  0
    1.7798   -0.2549    0.0000 N   0  0  0  0  0  0  0  0  0  0  0  0
    1.5249   -1.0396    0.0000 C   0  0  0  0  0  0  0  0  0  0  0  0
    2.0769   -1.6527    0.0000 C   0  0  0  0  0  0  0  0  0  0  0  0
    2.8839   -1.4811    0.0000 O   0  0  0  0  0  0  0  0  0  0  0  0
    1.8220   -2.4373    0.0000 C   0  0  0  0  0  0  0  0  0  0  0  0
    2.3069   -3.1047    0.0000 C   0  0  0  0  0  0  0  0  0  0  0  0
    1.8220   -3.7722    0.0000 C   0  0  0  0  0  0  0  0  0  0  0  0
    1.0374   -3.5172    0.0000 C   0  0  0  0  0  0  0  0  0  0  0  0
    1.0374   -2.6922    0.0000 O   0  0  0  0  0  0  0  0  0  0  0  0
  1  2  1  0  0  0  0
  2  3  1  0  0  0  0
  2  4  1  0  0  0  0
  4  5  1  0  0  0  0
  5  6  1  0  0  0  0
  6  7  1  0  0  0  0
  7  8  1  0  0  0  0
  8  9  1  0  0  0  0
  9 10  1  0  0  0  0
 10 11  1  0  0  0  0
 11 12  1  0  0  0  0
  6 12  1  0  0  0  0
 10 13  1  0  0  0  0
 13 14  1  0  0  0  0
 14 15  2  0  0  0  0
 15 16  1  0  0  0  0
 16 17  2  0  0  0  0
 17 18  1  0  0  0  0
 13 18  2  0  0  0  0
 18 19  1  0  0  0  0
 19 20  2  0  0  0  0
 20 21  1  0  0  0  0
 17 21  1  0  0  0  0
 21 22  1  0  0  0  0
 22 23  1  0  0  0  0
 23 24  1  0  0  0  0
 23 25  1  0  0  0  0
 25 26  1  0  0  0  0
 26 27  1  0  0  0  0
 27 28  1  0  0  0  0
 28 29  1  0  0  0  0
 25 29  1  0  0  0  0
M  END
>  <Catalog ID>
Z2760945022

>  <Plate_ID>
2026983-X50-02

>  <Well>
F06

>  <V, µL>
50

>  <Conc, mM>
10

>  <Formula>
C20H33N7O2

>  <MW>
403.5217

>  <Purity>
95.3

>  <PO>
5A-64168

>  <MW_salt>
0

>  <Stereochem.data>
Diastereomeric mixture

>  <Geometric.isomer>
None

>  <Chemical name>
2-(6-{4-[2-(dimethylamino)ethyl]-1,4-diazepan-1-yl}-9H-purin-9-yl)-1-(oxolan-2-yl)ethan-1-ol

>  <ClogP>
0,244

>  <logS>
-1,918

>  <HBD>
1

>  <HBA>
8

>  <TPSA>
82,78

>  <RotBonds>
7

$$$$

  Mrv1925 04172511352D          

 28 31  0  0  1  0            999 V2000
    1.1962   -5.6042    0.0000 C   0  0  0  0  0  0  0  0  0  0  0  0
    1.9106   -6.0167    0.0000 C   0  0  0  0  0  0  0  0  0  0  0  0
    2.6251   -5.6042    0.0000 O   0  0  0  0  0  0  0  0  0  0  0  0
    3.3396   -6.0167    0.0000 C   0  0  0  0  0  0  0  0  0  0  0  0
    4.0540   -5.6042    0.0000 C   0  0  0  0  0  0  0  0  0  0  0  0
    4.7685   -6.0167    0.0000 O   0  0  0  0  0  0  0  0  0  0  0  0
    5.4830   -5.6042    0.0000 C   0  0  1  0  0  0  0  0  0  0  0  0
    5.5692   -4.7837    0.0000 C   0  0  0  0  0  0  0  0  0  0  0  0
    6.3762   -4.6122    0.0000 C   0  0  0  0  0  0  0  0  0  0  0  0
    6.7887   -5.3267    0.0000 N   0  0  0  0  0  0  0  0  0  0  0  0
    6.2367   -5.9398    0.0000 C   0  0  0  0  0  0  0  0  0  0  0  0
    7.6092   -5.4129    0.0000 C   0  0  0  0  0  0  0  0  0  0  0  0
    8.0941   -4.7455    0.0000 N   0  0  0  0  0  0  0  0  0  0  0  0
    8.9146   -4.8317    0.0000 C   0  0  0  0  0  0  0  0  0  0  0  0
    9.2501   -5.5854    0.0000 N   0  0  0  0  0  0  0  0  0  0  0  0
    8.7652   -6.2528    0.0000 C   0  0  0  0  0  0  0  0  0  0  0  0
    7.9447   -6.1666    0.0000 C   0  0  0  0  0  0  0  0  0  0  0  0
    7.6092   -6.9203    0.0000 N   0  0  0  0  0  0  0  0  0  0  0  0
    8.2223   -7.4723    0.0000 C   0  0  0  0  0  0  0  0  0  0  0  0
    8.9367   -7.0598    0.0000 N   0  0  0  0  0  0  0  0  0  0  0  0
    9.6904   -7.3954    0.0000 C   0  0  0  0  0  0  0  0  0  0  0  0
   10.3578   -6.9104    0.0000 C   0  0  0  0  0  0  0  0  0  0  0  0
   10.2716   -6.0899    0.0000 O   0  0  0  0  0  0  0  0  0  0  0  0
   11.1115   -7.2460    0.0000 C   0  0  0  0  0  0  0  0  0  0  0  0
   11.8260   -6.8335    0.0000 C   0  0  0  0  0  0  0  0  0  0  0  0
   12.4391   -7.3855    0.0000 C   0  0  0  0  0  0  0  0  0  0  0  0
   12.1035   -8.1392    0.0000 C   0  0  0  0  0  0  0  0  0  0  0  0
   11.2830   -8.0530    0.0000 O   0  0  0  0  0  0  0  0  0  0  0  0
  1  2  1  0  0  0  0
  2  3  1  0  0  0  0
  3  4  1  0  0  0  0
  4  5  1  0  0  0  0
  5  6  1  0  0  0  0
  7  6  1  1  0  0  0
  7  8  1  0  0  0  0
  8  9  1  0  0  0  0
  9 10  1  0  0  0  0
 10 11  1  0  0  0  0
  7 11  1  0  0  0  0
 10 12  1  0  0  0  0
 12 13  1  0  0  0  0
 13 14  2  0  0  0  0
 14 15  1  0  0  0  0
 15 16  2  0  0  0  0
 16 17  1  0  0  0  0
 12 17  2  0  0  0  0
 17 18  1  0  0  0  0
 18 19  2  0  0  0  0
 19 20  1  0  0  0  0
 16 20  1  0  0  0  0
 20 21  1  0  0  0  0
 21 22  1  0  0  0  0
 22 23  1  0  0  0  0
 22 24  1  0  0  0  0
 24 25  1  0  0  0  0
 25 26  1  0  0  0  0
 26 27  1  0  0  0  0
 27 28  1  0  0  0  0
 24 28  1  0  0  0  0
M  END
>  <Catalog ID>
Z2760958053

>  <Plate_ID>
2026983-X50-02

>  <Well>
G06

>  <V, µL>
50

>  <Conc, mM>
10

>  <Formula>
C19H29N5O4

>  <MW>
391.4647

>  <Purity>
100

>  <PO>
5A-64168

>  <MW_salt>
0

>  <Stereochem.data>
Diastereomeric mixture

>  <Geometric.isomer>
None

>  <Chemical name>
2-{6-[(3S)-3-(2-ethoxyethoxy)pyrrolidin-1-yl]-9H-purin-9-yl}-1-(oxolan-2-yl)ethan-1-ol

>  <ClogP>
-0,174

>  <logS>
-2,857

>  <HBD>
1

>  <HBA>
8

>  <TPSA>
94,76

>  <RotBonds>
9

$$$$

  Mrv1925 04172511352D          

 32 36  0  0  0  0            999 V2000
    0.0768   -2.3215    0.0000 O   0  0  0  0  0  0  0  0  0  0  0  0
    0.8838   -2.1500    0.0000 C   0  0  0  0  0  0  0  0  0  0  0  0
    1.4358   -2.7631    0.0000 C   0  0  0  0  0  0  0  0  0  0  0  0
    1.1809   -3.5477    0.0000 N   0  0  0  0  0  0  0  0  0  0  0  0
    1.7329   -4.1608    0.0000 C   0  0  0  0  0  0  0  0  0  0  0  0
    2.5399   -3.9893    0.0000 O   0  0  0  0  0  0  0  0  0  0  0  0
    1.4780   -4.9454    0.0000 C   0  0  0  0  0  0  0  0  0  0  0  0
    2.0300   -5.5585    0.0000 F   0  0  0  0  0  0  0  0  0  0  0  0
    0.6710   -5.1170    0.0000 C   0  0  0  0  0  0  0  0  0  0  0  0
    0.1190   -4.5039    0.0000 N   0  0  0  0  0  0  0  0  0  0  0  0
    0.3739   -3.7192    0.0000 C   0  0  0  0  0  0  0  0  0  0  0  0
   -0.1781   -3.1062    0.0000 O   0  0  0  0  0  0  0  0  0  0  0  0
   -0.6880   -4.6754    0.0000 C   0  0  0  0  0  0  0  0  0  0  0  0
   -1.0236   -5.4291    0.0000 C   0  0  0  0  0  0  0  0  0  0  0  0
   -1.8440   -5.3428    0.0000 C   0  0  0  0  0  0  0  0  0  0  0  0
   -2.0156   -4.5359    0.0000 C   0  0  0  0  0  0  0  0  0  0  0  0
   -1.3011   -4.1234    0.0000 O   0  0  0  0  0  0  0  0  0  0  0  0
    1.1387   -1.3654    0.0000 C   0  0  0  0  0  0  0  0  0  0  0  0
    0.6538   -0.6979    0.0000 C   0  0  0  0  0  0  0  0  0  0  0  0
    1.1387   -0.0305    0.0000 N   0  0  0  0  0  0  0  0  0  0  0  0
    1.9233   -0.2854    0.0000 C   0  0  0  0  0  0  0  0  0  0  0  0
    2.6378    0.1271    0.0000 C   0  0  0  0  0  0  0  0  0  0  0  0
    3.3523   -0.2854    0.0000 C   0  0  0  0  0  0  0  0  0  0  0  0
    3.3523   -1.1104    0.0000 C   0  0  0  0  0  0  0  0  0  0  0  0
    2.6378   -1.5229    0.0000 C   0  0  0  0  0  0  0  0  0  0  0  0
    1.9233   -1.1104    0.0000 C   0  0  0  0  0  0  0  0  0  0  0  0
   -0.1712   -0.6979    0.0000 C   0  0  0  0  0  0  0  0  0  0  0  0
   -0.5837   -1.4124    0.0000 C   0  0  0  0  0  0  0  0  0  0  0  0
   -1.4087   -1.4124    0.0000 C   0  0  0  0  0  0  0  0  0  0  0  0
   -1.8212   -0.6979    0.0000 C   0  0  0  0  0  0  0  0  0  0  0  0
   -1.4087    0.0165    0.0000 C   0  0  0  0  0  0  0  0  0  0  0  0
   -0.5837    0.0165    0.0000 C   0  0  0  0  0  0  0  0  0  0  0  0
  1  2  2  0  0  0  0
  2  3  1  0  0  0  0
  3  4  1  0  0  0  0
  4  5  1  0  0  0  0
  5  6  2  0  0  0  0
  5  7  1  0  0  0  0
  7  8  1  0  0  0  0
  7  9  2  0  0  0  0
  9 10  1  0  0  0  0
 10 11  1  0  0  0  0
  4 11  1  0  0  0  0
 11 12  2  0  0  0  0
 10 13  1  0  0  0  0
 13 14  1  0  0  0  0
 14 15  1  0  0  0  0
 15 16  1  0  0  0  0
 16 17  1  0  0  0  0
 13 17  1  0  0  0  0
  2 18  1  0  0  0  0
 18 19  2  0  0  0  0
 19 20  1  0  0  0  0
 20 21  1  0  0  0  0
 21 22  2  0  0  0  0
 22 23  1  0  0  0  0
 23 24  2  0  0  0  0
 24 25  1  0  0  0  0
 25 26  2  0  0  0  0
 18 26  1  0  0  0  0
 21 26  1  0  0  0  0
 19 27  1  0  0  0  0
 27 28  1  0  0  0  0
 28 29  2  0  0  0  0
 29 30  1  0  0  0  0
 30 31  2  0  0  0  0
 31 32  1  0  0  0  0
 27 32  2  0  0  0  0
M  END
>  <Catalog ID>
Z107296876

>  <Plate_ID>
2026983-X50-02

>  <Well>
H06

>  <V, µL>
50

>  <Conc, mM>
10

>  <Formula>
C24H20FN3O4

>  <MW>
433.4317

>  <Purity>
100

>  <PO>
5A-64168

>  <MW_salt>
0

>  <Stereochem.data>
Racemic or presumed racemic or meso

>  <Geometric.isomer>
None

>  <Chemical name>
5-fluoro-3-[2-oxo-2-(2-phenyl-1H-indol-3-yl)ethyl]-1-(oxolan-2-yl)-1,2,3,4-tetrahydropyrimidine-2,4-dione

>  <ClogP>
4,827

>  <logS>
-5,63

>  <HBD>
1

>  <HBA>
4

>  <TPSA>
82,71

>  <RotBonds>
5

$$$$

  Mrv1925 04172511352D          

 18 19  0  0  0  0            999 V2000
    0.0000   -1.6500    0.0000 O   0  0  0  0  0  0  0  0  0  0  0  0
    0.7145   -1.2375    0.0000 C   0  0  0  0  0  0  0  0  0  0  0  0
    1.4289   -1.6500    0.0000 C   0  0  0  0  0  0  0  0  0  0  0  0
    1.4289   -2.4750    0.0000 N   0  0  0  0  0  0  0  0  0  0  0  0
    2.1434   -2.8875    0.0000 C   0  0  0  0  0  0  0  0  0  0  0  0
    2.1434   -3.7125    0.0000 C   0  0  0  0  0  0  0  0  0  0  0  0
    1.4289   -4.1250    0.0000 C   0  0  0  0  0  0  0  0  0  0  0  0
    1.4289   -4.9500    0.0000 O   0  0  0  0  0  0  0  0  0  0  0  0
    0.7145   -3.7125    0.0000 N   0  0  0  0  0  0  0  0  0  0  0  0
    0.7145   -2.8875    0.0000 C   0  0  0  0  0  0  0  0  0  0  0  0
    0.0000   -2.4750    0.0000 O   0  0  0  0  0  0  0  0  0  0  0  0
    0.7145   -0.4125    0.0000 N   0  0  0  0  0  0  0  0  0  0  0  0
    0.0000    0.0000    0.0000 C   0  0  0  0  0  0  0  0  0  0  0  0
    0.0000    0.8250    0.0000 C   0  0  0  0  0  0  0  0  0  0  0  0
    0.7145    1.2375    0.0000 N   0  0  0  0  0  0  0  0  0  0  0  0
    1.4289    0.8250    0.0000 C   0  0  0  0  0  0  0  0  0  0  0  0
    2.1434    1.2375    0.0000 O   0  0  0  0  0  0  0  0  0  0  0  0
    1.4289    0.0000    0.0000 C   0  0  0  0  0  0  0  0  0  0  0  0
  1  2  2  0  0  0  0
  2  3  1  0  0  0  0
  3  4  1  0  0  0  0
  4  5  1  0  0  0  0
  5  6  2  0  0  0  0
  6  7  1  0  0  0  0
  7  8  2  0  0  0  0
  7  9  1  0  0  0  0
  9 10  1  0  0  0  0
  4 10  1  0  0  0  0
 10 11  2  0  0  0  0
  2 12  1  0  0  0  0
 12 13  1  0  0  0  0
 13 14  1  0  0  0  0
 14 15  1  0  0  0  0
 15 16  1  0  0  0  0
 16 17  2  0  0  0  0
 16 18  1  0  0  0  0
 12 18  1  0  0  0  0
M  END
>  <Catalog ID>
Z145544798

>  <Plate_ID>
2026983-X50-02

>  <Well>
A07

>  <V, µL>
50

>  <Conc, mM>
10

>  <Formula>
C10H12N4O4

>  <MW>
252.2267

>  <Purity>
91

>  <PO>
5A-64168

>  <MW_salt>
0

>  <Stereochem.data>
Achiral

>  <Geometric.isomer>
None

>  <Chemical name>
1-[2-oxo-2-(3-oxopiperazin-1-yl)ethyl]-1,2,3,4-tetrahydropyrimidine-2,4-dione

>  <ClogP>
-1,27

>  <logS>
-1,03

>  <HBD>
2

>  <HBA>
4

>  <TPSA>
98,82

>  <RotBonds>
2

$$$$

  Mrv1925 04172511352D          

 22 23  0  0  0  0            999 V2000
    0.0000    0.0000    0.0000 C   0  0  0  0  0  0  0  0  0  0  0  0
    0.7145   -0.4125    0.0000 C   0  0  0  0  0  0  0  0  0  0  0  0
    0.7145   -1.2375    0.0000 N   0  0  0  0  0  0  0  0  0  0  0  0
    1.4289   -1.6500    0.0000 C   0  0  0  0  0  0  0  0  0  0  0  0
    2.1434   -1.2375    0.0000 O   0  0  0  0  0  0  0  0  0  0  0  0
    1.4289   -2.4750    0.0000 N   0  0  0  0  0  0  0  0  0  0  0  0
    2.1434   -2.8875    0.0000 C   0  0  0  0  0  0  0  0  0  0  0  0
    2.1434   -3.7125    0.0000 C   0  0  0  0  0  0  0  0  0  0  0  0
    1.4289   -4.1250    0.0000 N   0  0  0  0  0  0  0  0  0  0  0  0
    0.7145   -3.7125    0.0000 C   0  0  0  0  0  0  0  0  0  0  0  0
    0.7145   -2.8875    0.0000 C   0  0  0  0  0  0  0  0  0  0  0  0
    1.4289   -4.9500    0.0000 C   0  0  0  0  0  0  0  0  0  0  0  0
    0.7145   -5.3625    0.0000 O   0  0  0  0  0  0  0  0  0  0  0  0
    2.1434   -5.3625    0.0000 C   0  0  0  0  0  0  0  0  0  0  0  0
    2.1434   -6.1875    0.0000 N   0  0  0  0  0  0  0  0  0  0  0  0
    2.8579   -6.6000    0.0000 C   0  0  0  0  0  0  0  0  0  0  0  0
    2.8579   -7.4250    0.0000 C   0  0  0  0  0  0  0  0  0  0  0  0
    2.1434   -7.8375    0.0000 C   0  0  0  0  0  0  0  0  0  0  0  0
    2.1434   -8.6625    0.0000 O   0  0  0  0  0  0  0  0  0  0  0  0
    1.4289   -7.4250    0.0000 N   0  0  0  0  0  0  0  0  0  0  0  0
    1.4289   -6.6000    0.0000 C   0  0  0  0  0  0  0  0  0  0  0  0
    0.7145   -6.1875    0.0000 O   0  0  0  0  0  0  0  0  0  0  0  0
  1  2  1  0  0  0  0
  2  3  1  0  0  0  0
  3  4  1  0  0  0  0
  4  5  2  0  0  0  0
  4  6  1  0  0  0  0
  6  7  1  0  0  0  0
  7  8  1  0  0  0  0
  8  9  1  0  0  0  0
  9 10  1  0  0  0  0
 10 11  1  0  0  0  0
  6 11  1  0  0  0  0
  9 12  1  0  0  0  0
 12 13  2  0  0  0  0
 12 14  1  0  0  0  0
 14 15  1  0  0  0  0
 15 16  1  0  0  0  0
 16 17  2  0  0  0  0
 17 18  1  0  0  0  0
 18 19  2  0  0  0  0
 18 20  1  0  0  0  0
 20 21  1  0  0  0  0
 15 21  1  0  0  0  0
 21 22  2  0  0  0  0
M  END
>  <Catalog ID>
Z191397962

>  <Plate_ID>
2026983-X50-02

>  <Well>
B07

>  <V, µL>
50

>  <Conc, mM>
10

>  <Formula>
C13H19N5O4

>  <MW>
309.3211

>  <Purity>
100

>  <PO>
5A-64168

>  <MW_salt>
0

>  <Stereochem.data>
Achiral

>  <Geometric.isomer>
None

>  <Chemical name>
4-[2-(2,4-dioxo-1,2,3,4-tetrahydropyrimidin-1-yl)acetyl]-N-ethylpiperazine-1-carboxamide

>  <ClogP>
-0,601

>  <logS>
-1,796

>  <HBD>
2

>  <HBA>
4

>  <TPSA>
102,06

>  <RotBonds>
3

$$$$

  Mrv1925 04172511352D          

 23 24  0  0  0  0            999 V2000
    1.4289   -1.6500    0.0000 C   0  0  0  0  0  0  0  0  0  0  0  0
    1.4289   -2.4750    0.0000 C   0  0  0  0  0  0  0  0  0  0  0  0
    2.1434   -2.8875    0.0000 C   0  0  0  0  0  0  0  0  0  0  0  0
    2.1434   -3.7125    0.0000 N   0  0  0  0  0  0  0  0  0  0  0  0
    1.4289   -4.1250    0.0000 C   0  0  0  0  0  0  0  0  0  0  0  0
    0.7145   -3.7125    0.0000 C   0  0  0  0  0  0  0  0  0  0  0  0
    0.7145   -2.8875    0.0000 N   0  0  0  0  0  0  0  0  0  0  0  0
    0.0000   -2.4750    0.0000 C   0  0  0  0  0  0  0  0  0  0  0  0
    0.0000   -1.6500    0.0000 C   0  0  0  0  0  0  0  0  0  0  0  0
    0.0000   -0.8250    0.0000 F   0  0  0  0  0  0  0  0  0  0  0  0
   -0.8250   -1.6500    0.0000 F   0  0  0  0  0  0  0  0  0  0  0  0
    0.8250   -1.6500    0.0000 F   0  0  0  0  0  0  0  0  0  0  0  0
    2.8579   -4.1250    0.0000 C   0  0  0  0  0  0  0  0  0  0  0  0
    2.8579   -4.9500    0.0000 O   0  0  0  0  0  0  0  0  0  0  0  0
    3.5724   -3.7125    0.0000 C   0  0  0  0  0  0  0  0  0  0  0  0
    4.2868   -4.1250    0.0000 N   0  0  0  0  0  0  0  0  0  0  0  0
    5.0013   -3.7125    0.0000 C   0  0  0  0  0  0  0  0  0  0  0  0
    5.7158   -4.1250    0.0000 C   0  0  0  0  0  0  0  0  0  0  0  0
    5.7158   -4.9500    0.0000 C   0  0  0  0  0  0  0  0  0  0  0  0
    6.4302   -5.3625    0.0000 O   0  0  0  0  0  0  0  0  0  0  0  0
    5.0013   -5.3625    0.0000 N   0  0  0  0  0  0  0  0  0  0  0  0
    4.2868   -4.9500    0.0000 C   0  0  0  0  0  0  0  0  0  0  0  0
    3.5724   -5.3625    0.0000 O   0  0  0  0  0  0  0  0  0  0  0  0
  1  2  1  0  0  0  0
  2  3  1  0  0  0  0
  3  4  1  0  0  0  0
  4  5  1  0  0  0  0
  5  6  1  0  0  0  0
  6  7  1  0  0  0  0
  2  7  1  0  0  0  0
  7  8  1  0  0  0  0
  8  9  1  0  0  0  0
  9 10  1  0  0  0  0
  9 11  1  0  0  0  0
  9 12  1  0  0  0  0
  4 13  1  0  0  0  0
 13 14  2  0  0  0  0
 13 15  1  0  0  0  0
 15 16  1  0  0  0  0
 16 17  1  0  0  0  0
 17 18  2  0  0  0  0
 18 19  1  0  0  0  0
 19 20  2  0  0  0  0
 19 21  1  0  0  0  0
 21 22  1  0  0  0  0
 16 22  1  0  0  0  0
 22 23  2  0  0  0  0
M  END
>  <Catalog ID>
Z1542548589

>  <Plate_ID>
2026983-X50-02

>  <Well>
C07

>  <V, µL>
50

>  <Conc, mM>
10

>  <Formula>
C13H17F3N4O3

>  <MW>
334.2943

>  <Purity>
100

>  <PO>
5A-64168

>  <MW_salt>
0

>  <Stereochem.data>
Racemic or presumed racemic or meso

>  <Geometric.isomer>
None

>  <Chemical name>
1-{2-[3-methyl-4-(2,2,2-trifluoroethyl)piperazin-1-yl]-2-oxoethyl}-1,2,3,4-tetrahydropyrimidine-2,4-dione

>  <ClogP>
0,563

>  <logS>
-2,383

>  <HBD>
1

>  <HBA>
4

>  <TPSA>
72,96

>  <RotBonds>
4

$$$$

  Mrv1925 04172511352D          

 20 20  0  0  0  0            999 V2000
    0.0000    2.4750    0.0000 C   0  0  0  0  0  0  0  0  0  0  0  0
    0.7145    2.0625    0.0000 C   0  0  0  0  0  0  0  0  0  0  0  0
    0.7145    1.2375    0.0000 N   0  0  0  0  0  0  0  0  0  0  0  0
    1.4289    0.8250    0.0000 C   0  0  0  0  0  0  0  0  0  0  0  0
    1.4289   -0.0000    0.0000 C   0  0  0  0  0  0  0  0  0  0  0  0
    2.1434   -0.4125    0.0000 C   0  0  0  0  0  0  0  0  0  0  0  0
    2.1434   -1.2375    0.0000 N   0  0  0  0  0  0  0  0  0  0  0  0
    2.8579   -1.6500    0.0000 C   0  0  0  0  0  0  0  0  0  0  0  0
    3.5724   -1.2375    0.0000 O   0  0  0  0  0  0  0  0  0  0  0  0
    2.8579   -2.4750    0.0000 C   0  0  0  0  0  0  0  0  0  0  0  0
    2.1434   -2.8875    0.0000 F   0  0  0  0  0  0  0  0  0  0  0  0
    3.5724   -2.8875    0.0000 C   0  0  0  0  0  0  0  0  0  0  0  0
    4.2868   -3.3000    0.0000 F   0  0  0  0  0  0  0  0  0  0  0  0
    3.1599   -3.6020    0.0000 F   0  0  0  0  0  0  0  0  0  0  0  0
    3.9849   -2.1730    0.0000 F   0  0  0  0  0  0  0  0  0  0  0  0
    0.7145   -0.4125    0.0000 C   0  0  0  0  0  0  0  0  0  0  0  0
    0.7145   -1.2375    0.0000 O   0  0  0  0  0  0  0  0  0  0  0  0
    0.0000    0.0000    0.0000 N   0  0  0  0  0  0  0  0  0  0  0  0
    0.0000    0.8250    0.0000 C   0  0  0  0  0  0  0  0  0  0  0  0
   -0.7145    1.2375    0.0000 O   0  0  0  0  0  0  0  0  0  0  0  0
  1  2  1  0  0  0  0
  2  3  1  0  0  0  0
  3  4  1  0  0  0  0
  4  5  2  0  0  0  0
  5  6  1  0  0  0  0
  6  7  1  0  0  0  0
  7  8  1  0  0  0  0
  8  9  2  0  0  0  0
  8 10  1  0  0  0  0
 10 11  1  0  0  0  0
 10 12  1  0  0  0  0
 12 13  1  0  0  0  0
 12 14  1  0  0  0  0
 12 15  1  0  0  0  0
  5 16  1  0  0  0  0
 16 17  2  0  0  0  0
 16 18  1  0  0  0  0
 18 19  1  0  0  0  0
  3 19  1  0  0  0  0
 19 20  2  0  0  0  0
M  END
>  <Catalog ID>
Z3204056427

>  <Plate_ID>
2026983-X50-02

>  <Well>
D07

>  <V, µL>
50

>  <Conc, mM>
10

>  <Formula>
C10H11F4N3O3

>  <MW>
297.2063

>  <Purity>
100

>  <PO>
5A-64168

>  <MW_salt>
0

>  <Stereochem.data>
Racemic or presumed racemic or meso

>  <Geometric.isomer>
None

>  <Chemical name>
N-[(1-ethyl-2,4-dioxo-1,2,3,4-tetrahydropyrimidin-5-yl)methyl]-2,3,3,3-tetrafluoropropanamide

>  <ClogP>
-0,797

>  <logS>
-2,586

>  <HBD>
2

>  <HBA>
3

>  <TPSA>
78,51

>  <RotBonds>
5

$$$$

  Mrv1925 04172511352D          

 18 20  0  0  0  0            999 V2000
    1.0164    4.8395    0.0000 N   0  0  0  0  0  0  0  0  0  0  0  0
    0.3020    4.4270    0.0000 C   0  0  0  0  0  0  0  0  0  0  0  0
   -0.4125    4.0145    0.0000 C   0  0  0  0  0  0  0  0  0  0  0  0
   -0.4125    3.1895    0.0000 C   0  0  0  0  0  0  0  0  0  0  0  0
   -1.1270    2.7770    0.0000 N   0  0  0  0  0  0  0  0  0  0  0  0
   -1.8414    3.1895    0.0000 C   0  0  0  0  0  0  0  0  0  0  0  0
   -2.5559    2.7770    0.0000 O   0  0  0  0  0  0  0  0  0  0  0  0
   -1.8414    4.0145    0.0000 N   0  0  0  0  0  0  0  0  0  0  0  0
   -2.5559    4.4270    0.0000 C   0  0  0  0  0  0  0  0  0  0  0  0
   -2.5559    5.2520    0.0000 C   0  0  0  0  0  0  0  0  0  0  0  0
   -3.1393    5.8353    0.0000 C   0  0  0  0  0  0  0  0  0  0  0  0
   -2.5559    6.4187    0.0000 C   0  0  0  0  0  0  0  0  0  0  0  0
   -1.9725    5.8353    0.0000 C   0  0  0  0  0  0  0  0  0  0  0  0
   -1.1270    4.4270    0.0000 C   0  0  0  0  0  0  0  0  0  0  0  0
   -1.1270    5.2520    0.0000 O   0  0  0  0  0  0  0  0  0  0  0  0
   -1.1270    1.9520    0.0000 C   0  0  0  0  0  0  0  0  0  0  0  0
   -0.7145    1.2375    0.0000 C   0  0  0  0  0  0  0  0  0  0  0  0
   -1.5395    1.2375    0.0000 C   0  0  0  0  0  0  0  0  0  0  0  0
  1  2  3  0  0  0  0
  2  3  1  0  0  0  0
  3  4  2  0  0  0  0
  4  5  1  0  0  0  0
  5  6  1  0  0  0  0
  6  7  2  0  0  0  0
  6  8  1  0  0  0  0
  8  9  1  0  0  0  0
  9 10  1  0  0  0  0
 10 11  1  0  0  0  0
 11 12  1  0  0  0  0
 12 13  1  0  0  0  0
 10 13  1  0  0  0  0
  8 14  1  0  0  0  0
  3 14  1  0  0  0  0
 14 15  2  0  0  0  0
  5 16  1  0  0  0  0
 16 17  1  0  0  0  0
 17 18  1  0  0  0  0
 16 18  1  0  0  0  0
M  END
>  <Catalog ID>
Z1272967670

>  <Plate_ID>
2026983-X50-02

>  <Well>
E07

>  <V, µL>
50

>  <Conc, mM>
10

>  <Formula>
C13H15N3O2

>  <MW>
245.2771

>  <Purity>
95.61

>  <PO>
5A-64168

>  <MW_salt>
0

>  <Stereochem.data>
Achiral

>  <Geometric.isomer>
None

>  <Chemical name>
3-(cyclobutylmethyl)-1-cyclopropyl-2,4-dioxo-1,2,3,4-tetrahydropyrimidine-5-carbonitrile

>  <ClogP>
1,785

>  <logS>
-2,19

>  <HBD>
0

>  <HBA>
3

>  <TPSA>
64,41

>  <RotBonds>
3

$$$$

  Mrv1925 04172511352D          

 17 17  0  0  0  0            999 V2000
    1.4289   -4.1250    0.0000 C   0  0  0  0  0  0  0  0  0  0  0  0
    2.1434   -3.7125    0.0000 C   0  0  0  0  0  0  0  0  0  0  0  0
    2.8579   -4.1250    0.0000 C   0  0  0  0  0  0  0  0  0  0  0  0
    2.8579   -4.9500    0.0000 C   0  0  0  0  0  0  0  0  0  0  0  0
    3.5724   -3.7125    0.0000 N   0  0  0  0  0  0  0  0  0  0  0  0
    4.2868   -4.1250    0.0000 C   0  0  0  0  0  0  0  0  0  0  0  0
    4.2868   -4.9500    0.0000 O   0  0  0  0  0  0  0  0  0  0  0  0
    5.0013   -3.7125    0.0000 C   0  0  0  0  0  0  0  0  0  0  0  0
    5.7158   -4.1250    0.0000 N   0  0  0  0  0  0  0  0  0  0  0  0
    6.4302   -3.7125    0.0000 C   0  0  0  0  0  0  0  0  0  0  0  0
    7.1447   -4.1250    0.0000 C   0  0  0  0  0  0  0  0  0  0  0  0
    7.1447   -4.9500    0.0000 C   0  0  0  0  0  0  0  0  0  0  0  0
    7.8592   -5.3625    0.0000 O   0  0  0  0  0  0  0  0  0  0  0  0
    6.4302   -5.3625    0.0000 N   0  0  0  0  0  0  0  0  0  0  0  0
    6.4302   -6.1875    0.0000 C   0  0  0  0  0  0  0  0  0  0  0  0
    5.7158   -4.9500    0.0000 C   0  0  0  0  0  0  0  0  0  0  0  0
    5.0013   -5.3625    0.0000 O   0  0  0  0  0  0  0  0  0  0  0  0
  1  2  1  0  0  0  0
  2  3  1  0  0  0  0
  3  4  1  0  0  0  0
  3  5  1  0  0  0  0
  5  6  1  0  0  0  0
  6  7  2  0  0  0  0
  6  8  1  0  0  0  0
  8  9  1  0  0  0  0
  9 10  1  0  0  0  0
 10 11  2  0  0  0  0
 11 12  1  0  0  0  0
 12 13  2  0  0  0  0
 12 14  1  0  0  0  0
 14 15  1  0  0  0  0
 14 16  1  0  0  0  0
  9 16  1  0  0  0  0
 16 17  2  0  0  0  0
M  END
>  <Catalog ID>
Z382844786

>  <Plate_ID>
2026983-X50-02

>  <Well>
F07

>  <V, µL>
50

>  <Conc, mM>
10

>  <Formula>
C11H17N3O3

>  <MW>
239.271

>  <Purity>
100

>  <PO>
5A-64168

>  <MW_salt>
0

>  <Stereochem.data>
Racemic or presumed racemic or meso

>  <Geometric.isomer>
None

>  <Chemical name>
N-(butan-2-yl)-2-(3-methyl-2,4-dioxo-1,2,3,4-tetrahydropyrimidin-1-yl)acetamide

>  <ClogP>
0,352

>  <logS>
-0,962

>  <HBD>
1

>  <HBA>
3

>  <TPSA>
69,72

>  <RotBonds>
4

$$$$

  Mrv1925 04172511352D          

 17 17  0  0  0  0            999 V2000
   -1.4289    4.9500    0.0000 C   0  0  0  0  0  0  0  0  0  0  0  0
   -1.4289    4.1250    0.0000 C   0  0  0  0  0  0  0  0  0  0  0  0
   -0.7145    3.7125    0.0000 C   0  0  0  0  0  0  0  0  0  0  0  0
   -1.1270    2.9980    0.0000 C   0  0  0  0  0  0  0  0  0  0  0  0
   -0.3020    4.4270    0.0000 C   0  0  0  0  0  0  0  0  0  0  0  0
    0.0000    3.3000    0.0000 N   0  0  0  0  0  0  0  0  0  0  0  0
    0.0000    2.4750    0.0000 C   0  0  0  0  0  0  0  0  0  0  0  0
   -0.7145    2.0625    0.0000 O   0  0  0  0  0  0  0  0  0  0  0  0
    0.7145    2.0625    0.0000 C   0  0  0  0  0  0  0  0  0  0  0  0
    0.7145    1.2375    0.0000 N   0  0  0  0  0  0  0  0  0  0  0  0
    1.4289    0.8250    0.0000 C   0  0  0  0  0  0  0  0  0  0  0  0
    1.4289   -0.0000    0.0000 C   0  0  0  0  0  0  0  0  0  0  0  0
    0.7145   -0.4125    0.0000 C   0  0  0  0  0  0  0  0  0  0  0  0
    0.7145   -1.2375    0.0000 O   0  0  0  0  0  0  0  0  0  0  0  0
    0.0000    0.0000    0.0000 N   0  0  0  0  0  0  0  0  0  0  0  0
    0.0000    0.8250    0.0000 C   0  0  0  0  0  0  0  0  0  0  0  0
   -0.7145    1.2375    0.0000 O   0  0  0  0  0  0  0  0  0  0  0  0
  1  2  1  0  0  0  0
  2  3  1  0  0  0  0
  3  4  1  0  0  0  0
  3  5  1  0  0  0  0
  3  6  1  0  0  0  0
  6  7  1  0  0  0  0
  7  8  2  0  0  0  0
  7  9  1  0  0  0  0
  9 10  1  0  0  0  0
 10 11  1  0  0  0  0
 11 12  2  0  0  0  0
 12 13  1  0  0  0  0
 13 14  2  0  0  0  0
 13 15  1  0  0  0  0
 15 16  1  0  0  0  0
 10 16  1  0  0  0  0
 16 17  2  0  0  0  0
M  END
>  <Catalog ID>
Z135626990

>  <Plate_ID>
2026983-X50-02

>  <Well>
G07

>  <V, µL>
50

>  <Conc, mM>
10

>  <Formula>
C11H17N3O3

>  <MW>
239.271

>  <Purity>
98.78

>  <PO>
5A-64168

>  <MW_salt>
0

>  <Stereochem.data>
Achiral

>  <Geometric.isomer>
None

>  <Chemical name>
2-(2,4-dioxo-1,2,3,4-tetrahydropyrimidin-1-yl)-N-(2-methylbutan-2-yl)acetamide

>  <ClogP>
0,025

>  <logS>
-1,956

>  <HBD>
2

>  <HBA>
3

>  <TPSA>
78,51

>  <RotBonds>
4

$$$$

  Mrv1925 04172511352D          

 27 30  0  0  0  0            999 V2000
    3.3523    3.5854    0.0000 O   0  0  0  0  0  0  0  0  0  0  0  0
    4.0668    3.1729    0.0000 C   0  0  0  0  0  0  0  0  0  0  0  0
    4.7812    3.5854    0.0000 C   0  0  0  0  0  0  0  0  0  0  0  0
    4.7812    4.4104    0.0000 N   0  0  0  0  0  0  0  0  0  0  0  0
    4.0668    4.8229    0.0000 C   0  0  0  0  0  0  0  0  0  0  0  0
    3.3523    4.4104    0.0000 O   0  0  0  0  0  0  0  0  0  0  0  0
    4.0668    5.6479    0.0000 C   0  0  0  0  0  0  0  0  0  0  0  0
    3.3523    6.0604    0.0000 F   0  0  0  0  0  0  0  0  0  0  0  0
    4.7812    6.0604    0.0000 C   0  0  0  0  0  0  0  0  0  0  0  0
    5.4957    5.6479    0.0000 N   0  0  0  0  0  0  0  0  0  0  0  0
    5.4957    4.8229    0.0000 C   0  0  0  0  0  0  0  0  0  0  0  0
    6.2102    4.4104    0.0000 O   0  0  0  0  0  0  0  0  0  0  0  0
    6.2102    6.0604    0.0000 C   0  0  0  0  0  0  0  0  0  0  0  0
    6.2964    6.8809    0.0000 C   0  0  0  0  0  0  0  0  0  0  0  0
    7.1034    7.0525    0.0000 C   0  0  0  0  0  0  0  0  0  0  0  0
    7.5159    6.3380    0.0000 C   0  0  0  0  0  0  0  0  0  0  0  0
    6.9638    5.7249    0.0000 O   0  0  0  0  0  0  0  0  0  0  0  0
    4.0668    2.3479    0.0000 N   0  0  0  0  0  0  0  0  0  0  0  0
    3.3523    1.9354    0.0000 C   0  0  0  0  0  0  0  0  0  0  0  0
    3.3523    1.1104    0.0000 C   0  0  0  0  0  0  0  0  0  0  0  0
    2.6378    0.6979    0.0000 C   0  0  0  0  0  0  0  0  0  0  0  0
    1.9233    1.1104    0.0000 C   0  0  0  0  0  0  0  0  0  0  0  0
    1.1387    0.8555    0.0000 O   0  0  0  0  0  0  0  0  0  0  0  0
    0.6538    1.5229    0.0000 C   0  0  0  0  0  0  0  0  0  0  0  0
    1.1387    2.1904    0.0000 O   0  0  0  0  0  0  0  0  0  0  0  0
    1.9233    1.9354    0.0000 C   0  0  0  0  0  0  0  0  0  0  0  0
    2.6378    2.3479    0.0000 C   0  0  0  0  0  0  0  0  0  0  0  0
  1  2  2  0  0  0  0
  2  3  1  0  0  0  0
  3  4  1  0  0  0  0
  4  5  1  0  0  0  0
  5  6  2  0  0  0  0
  5  7  1  0  0  0  0
  7  8  1  0  0  0  0
  7  9  2  0  0  0  0
  9 10  1  0  0  0  0
 10 11  1  0  0  0  0
  4 11  1  0  0  0  0
 11 12  2  0  0  0  0
 10 13  1  0  0  0  0
 13 14  1  0  0  0  0
 14 15  1  0  0  0  0
 15 16  1  0  0  0  0
 16 17  1  0  0  0  0
 13 17  1  0  0  0  0
  2 18  1  0  0  0  0
 18 19  1  0  0  0  0
 19 20  1  0  0  0  0
 20 21  2  0  0  0  0
 21 22  1  0  0  0  0
 22 23  1  0  0  0  0
 23 24  1  0  0  0  0
 24 25  1  0  0  0  0
 25 26  1  0  0  0  0
 22 26  2  0  0  0  0
 26 27  1  0  0  0  0
 19 27  2  0  0  0  0
M  END
>  <Catalog ID>
Z94556663

>  <Plate_ID>
2026983-X50-02

>  <Well>
H07

>  <V, µL>
50

>  <Conc, mM>
10

>  <Formula>
C17H16FN3O6

>  <MW>
377.3238

>  <Purity>
100

>  <PO>
5A-64168

>  <MW_salt>
0

>  <Stereochem.data>
Racemic or presumed racemic or meso

>  <Geometric.isomer>
None

>  <Chemical name>
N-(1,3-dioxaindan-5-yl)-2-[5-fluoro-2,6-dioxo-3-(oxolan-2-yl)-1,2,3,6-tetrahydropyrimidin-1-yl]acetamide

>  <ClogP>
2,103

>  <logS>
-2,99

>  <HBD>
1

>  <HBA>
6

>  <TPSA>
97,41

>  <RotBonds>
4

$$$$

  Mrv1925 04172511352D          

 27 30  0  0  0  0            999 V2000
    4.8059    3.1567    0.0000 C   0  0  0  0  0  0  0  0  0  0  0  0
    3.9934    3.3000    0.0000 C   0  0  0  0  0  0  0  0  0  0  0  0
    4.2756    4.0752    0.0000 C   0  0  0  0  0  0  0  0  0  0  0  0
    3.9934    2.4750    0.0000 C   0  0  0  0  0  0  0  0  0  0  0  0
    3.2789    2.0625    0.0000 N   0  0  0  0  0  0  0  0  0  0  0  0
    2.5645    2.4750    0.0000 C   0  0  0  0  0  0  0  0  0  0  0  0
    2.5645    3.3000    0.0000 C   0  0  0  0  0  0  0  0  0  0  0  0
    3.2789    3.7125    0.0000 N   0  0  0  0  0  0  0  0  0  0  0  0
    3.2789    4.5375    0.0000 C   0  0  0  0  0  0  0  0  0  0  0  0
    3.9934    4.9500    0.0000 C   0  0  0  0  0  0  0  0  0  0  0  0
    3.9934    5.7750    0.0000 O   0  0  0  0  0  0  0  0  0  0  0  0
    3.2789    1.2375    0.0000 C   0  0  0  0  0  0  0  0  0  0  0  0
    3.9934    0.8250    0.0000 N   0  0  0  0  0  0  0  0  0  0  0  0
    3.9934    0.0000    0.0000 C   0  0  0  0  0  0  0  0  0  0  0  0
    3.2789   -0.4125    0.0000 N   0  0  0  0  0  0  0  0  0  0  0  0
    2.5645    0.0000    0.0000 C   0  0  0  0  0  0  0  0  0  0  0  0
    2.5645    0.8250    0.0000 C   0  0  0  0  0  0  0  0  0  0  0  0
    1.7798    1.0799    0.0000 N   0  0  0  0  0  0  0  0  0  0  0  0
    1.2949    0.4125    0.0000 C   0  0  0  0  0  0  0  0  0  0  0  0
    1.7798   -0.2549    0.0000 N   0  0  0  0  0  0  0  0  0  0  0  0
    1.5249   -1.0396    0.0000 C   0  0  0  0  0  0  0  0  0  0  0  0
    0.7179   -1.2111    0.0000 C   0  0  0  0  0  0  0  0  0  0  0  0
    0.5464   -0.4041    0.0000 C   0  0  0  0  0  0  0  0  0  0  0  0
   -0.2382   -0.1492    0.0000 O   0  0  0  0  0  0  0  0  0  0  0  0
    0.8895   -2.0181    0.0000 C   0  0  0  0  0  0  0  0  0  0  0  0
    0.0825   -2.1896    0.0000 O   0  0  0  0  0  0  0  0  0  0  0  0
   -0.0890   -1.3826    0.0000 C   0  0  0  0  0  0  0  0  0  0  0  0
  1  2  1  0  0  0  0
  2  3  1  0  0  0  0
  2  4  1  0  0  0  0
  4  5  1  0  0  0  0
  5  6  1  0  0  0  0
  6  7  1  0  0  0  0
  7  8  1  0  0  0  0
  2  8  1  0  0  0  0
  8  9  1  0  0  0  0
  9 10  1  0  0  0  0
 10 11  1  0  0  0  0
  5 12  1  0  0  0  0
 12 13  1  0  0  0  0
 13 14  2  0  0  0  0
 14 15  1  0  0  0  0
 15 16  2  0  0  0  0
 16 17  1  0  0  0  0
 12 17  2  0  0  0  0
 17 18  1  0  0  0  0
 18 19  2  0  0  0  0
 19 20  1  0  0  0  0
 16 20  1  0  0  0  0
 20 21  1  0  0  0  0
 21 22  1  0  0  0  0
 22 23  1  0  0  0  0
 23 24  1  0  0  0  0
 22 25  1  0  0  0  0
 25 26  1  0  0  0  0
 26 27  1  0  0  0  0
 22 27  1  0  0  0  0
M  END
>  <Catalog ID>
Z2760962909

>  <Plate_ID>
2026983-X50-02

>  <Well>
A08

>  <V, µL>
50

>  <Conc, mM>
10

>  <Formula>
C18H28N6O3

>  <MW>
376.4533

>  <Purity>
100

>  <PO>
5A-64168

>  <MW_salt>
0

>  <Stereochem.data>
Achiral

>  <Geometric.isomer>
None

>  <Chemical name>
2-[4-(9-{[3-(hydroxymethyl)oxetan-3-yl]methyl}-9H-purin-6-yl)-2,2-dimethylpiperazin-1-yl]ethan-1-ol

>  <ClogP>
-1,208

>  <logS>
-1,608

>  <HBD>
2

>  <HBA>
8

>  <TPSA>
99,77

>  <RotBonds>
6

$$$$

  Mrv1925 04172511352D          

 27 30  0  0  0  0            999 V2000
    2.3715    5.4579    0.0000 C   0  0  0  0  0  0  0  0  0  0  0  0
    2.2852    4.6374    0.0000 N   0  0  0  0  0  0  0  0  0  0  0  0
    2.9527    4.1525    0.0000 C   0  0  0  0  0  0  0  0  0  0  0  0
    3.7063    4.4881    0.0000 O   0  0  0  0  0  0  0  0  0  0  0  0
    2.8664    3.3320    0.0000 C   0  0  0  0  0  0  0  0  0  0  0  0
    2.0595    3.5036    0.0000 C   0  0  0  0  0  0  0  0  0  0  0  0
    3.6914    3.3320    0.0000 C   0  0  0  0  0  0  0  0  0  0  0  0
    3.9464    2.5474    0.0000 C   0  0  0  0  0  0  0  0  0  0  0  0
    3.2789    2.0625    0.0000 N   0  0  0  0  0  0  0  0  0  0  0  0
    2.6115    2.5474    0.0000 C   0  0  0  0  0  0  0  0  0  0  0  0
    3.2789    1.2375    0.0000 C   0  0  0  0  0  0  0  0  0  0  0  0
    3.9934    0.8250    0.0000 N   0  0  0  0  0  0  0  0  0  0  0  0
    3.9934    0.0000    0.0000 C   0  0  0  0  0  0  0  0  0  0  0  0
    3.2789   -0.4125    0.0000 N   0  0  0  0  0  0  0  0  0  0  0  0
    2.5645    0.0000    0.0000 C   0  0  0  0  0  0  0  0  0  0  0  0
    2.5645    0.8250    0.0000 C   0  0  0  0  0  0  0  0  0  0  0  0
    1.7798    1.0799    0.0000 N   0  0  0  0  0  0  0  0  0  0  0  0
    1.2949    0.4125    0.0000 C   0  0  0  0  0  0  0  0  0  0  0  0
    1.7798   -0.2549    0.0000 N   0  0  0  0  0  0  0  0  0  0  0  0
    1.5249   -1.0396    0.0000 C   0  0  0  0  0  0  0  0  0  0  0  0
    2.0769   -1.6527    0.0000 C   0  0  0  0  0  0  0  0  0  0  0  0
    2.8839   -1.4811    0.0000 O   0  0  0  0  0  0  0  0  0  0  0  0
    1.8220   -2.4373    0.0000 C   0  0  0  0  0  0  0  0  0  0  0  0
    2.3069   -3.1047    0.0000 C   0  0  0  0  0  0  0  0  0  0  0  0
    1.8220   -3.7722    0.0000 C   0  0  0  0  0  0  0  0  0  0  0  0
    1.0374   -3.5172    0.0000 C   0  0  0  0  0  0  0  0  0  0  0  0
    1.0374   -2.6922    0.0000 O   0  0  0  0  0  0  0  0  0  0  0  0
  1  2  1  0  0  0  0
  2  3  1  0  0  0  0
  3  4  2  0  0  0  0
  3  5  1  0  0  0  0
  5  6  1  0  0  0  0
  5  7  1  0  0  0  0
  7  8  1  0  0  0  0
  8  9  1  0  0  0  0
  9 10  1  0  0  0  0
  5 10  1  0  0  0  0
  9 11  1  0  0  0  0
 11 12  1  0  0  0  0
 12 13  2  0  0  0  0
 13 14  1  0  0  0  0
 14 15  2  0  0  0  0
 15 16  1  0  0  0  0
 11 16  2  0  0  0  0
 16 17  1  0  0  0  0
 17 18  2  0  0  0  0
 18 19  1  0  0  0  0
 15 19  1  0  0  0  0
 19 20  1  0  0  0  0
 20 21  1  0  0  0  0
 21 22  1  0  0  0  0
 21 23  1  0  0  0  0
 23 24  1  0  0  0  0
 24 25  1  0  0  0  0
 25 26  1  0  0  0  0
 26 27  1  0  0  0  0
 23 27  1  0  0  0  0
M  END
>  <Catalog ID>
Z2760966608

>  <Plate_ID>
2026983-X50-02

>  <Well>
B08

>  <V, µL>
50

>  <Conc, mM>
10

>  <Formula>
C18H26N6O3

>  <MW>
374.4374

>  <Purity>
97.58

>  <PO>
5A-64168

>  <MW_salt>
0

>  <Stereochem.data>
Diastereomeric mixture

>  <Geometric.isomer>
None

>  <Chemical name>
1-{9-[2-hydroxy-2-(oxolan-2-yl)ethyl]-9H-purin-6-yl}-N,3-dimethylpyrrolidine-3-carboxamide

>  <ClogP>
-0,733

>  <logS>
-2,661

>  <HBD>
2

>  <HBA>
7

>  <TPSA>
105,4

>  <RotBonds>
5

$$$$

  Mrv1925 04172511352D          

 28 32  0  0  0  0            999 V2000
    2.2428   -2.5916    0.0000 O   0  0  0  0  0  0  0  0  0  0  0  0
    1.4358   -2.7631    0.0000 C   0  0  0  0  0  0  0  0  0  0  0  0
    0.8838   -2.1500    0.0000 C   0  0  0  0  0  0  0  0  0  0  0  0
    1.1387   -1.3654    0.0000 N   0  0  0  0  0  0  0  0  0  0  0  0
    0.6538   -0.6979    0.0000 C   0  0  0  0  0  0  0  0  0  0  0  0
    1.1387   -0.0305    0.0000 N   0  0  0  0  0  0  0  0  0  0  0  0
    1.9233   -0.2854    0.0000 C   0  0  0  0  0  0  0  0  0  0  0  0
    2.6378    0.1271    0.0000 C   0  0  0  0  0  0  0  0  0  0  0  0
    3.3523   -0.2854    0.0000 N   0  0  0  0  0  0  0  0  0  0  0  0
    3.3523   -1.1104    0.0000 C   0  0  0  0  0  0  0  0  0  0  0  0
    2.6378   -1.5229    0.0000 N   0  0  0  0  0  0  0  0  0  0  0  0
    1.9233   -1.1104    0.0000 C   0  0  0  0  0  0  0  0  0  0  0  0
    2.6378    0.9521    0.0000 N   0  0  0  0  0  0  0  0  0  0  0  0
    1.9233    1.3646    0.0000 C   0  0  0  0  0  0  0  0  0  0  0  0
    1.9233    2.1896    0.0000 C   0  0  0  0  0  0  0  0  0  0  0  0
    2.6378    2.6021    0.0000 O   0  0  0  0  0  0  0  0  0  0  0  0
    3.3523    2.1896    0.0000 C   0  0  0  0  0  0  0  0  0  0  0  0
    3.3523    1.3646    0.0000 C   0  0  0  0  0  0  0  0  0  0  0  0
    4.0668    0.9521    0.0000 C   0  0  0  0  0  0  0  0  0  0  0  0
    4.7812    1.3646    0.0000 C   0  0  0  0  0  0  0  0  0  0  0  0
    4.9948    2.1614    0.0000 C   0  0  0  0  0  0  0  0  0  0  0  0
    5.7916    1.9479    0.0000 C   0  0  0  0  0  0  0  0  0  0  0  0
    5.5781    1.1510    0.0000 C   0  0  0  0  0  0  0  0  0  0  0  0
    1.1809   -3.5477    0.0000 C   0  0  0  0  0  0  0  0  0  0  0  0
    1.6658   -4.2152    0.0000 C   0  0  0  0  0  0  0  0  0  0  0  0
    1.1809   -4.8826    0.0000 C   0  0  0  0  0  0  0  0  0  0  0  0
    0.3963   -4.6277    0.0000 C   0  0  0  0  0  0  0  0  0  0  0  0
    0.3963   -3.8027    0.0000 O   0  0  0  0  0  0  0  0  0  0  0  0
  1  2  1  0  0  0  0
  2  3  1  0  0  0  0
  3  4  1  0  0  0  0
  4  5  1  0  0  0  0
  5  6  2  0  0  0  0
  6  7  1  0  0  0  0
  7  8  2  0  0  0  0
  8  9  1  0  0  0  0
  9 10  2  0  0  0  0
 10 11  1  0  0  0  0
 11 12  2  0  0  0  0
  7 12  1  0  0  0  0
  4 12  1  0  0  0  0
  8 13  1  0  0  0  0
 13 14  1  0  0  0  0
 14 15  1  0  0  0  0
 15 16  1  0  0  0  0
 16 17  1  0  0  0  0
 17 18  1  0  0  0  0
 13 18  1  0  0  0  0
 18 19  1  0  0  0  0
 19 20  1  0  0  0  0
 20 21  1  0  0  0  0
 21 22  1  0  0  0  0
 22 23  1  0  0  0  0
 20 23  1  0  0  0  0
  2 24  1  0  0  0  0
 24 25  1  0  0  0  0
 25 26  1  0  0  0  0
 26 27  1  0  0  0  0
 27 28  1  0  0  0  0
 24 28  1  0  0  0  0
M  END
>  <Catalog ID>
Z2760972620

>  <Plate_ID>
2026983-X50-02

>  <Well>
C08

>  <V, µL>
50

>  <Conc, mM>
10

>  <Formula>
C20H29N5O3

>  <MW>
387.476

>  <Purity>
100

>  <PO>
5A-64168

>  <MW_salt>
0

>  <Stereochem.data>
Diastereomeric mixture

>  <Geometric.isomer>
None

>  <Chemical name>
2-{6-[3-(cyclobutylmethyl)morpholin-4-yl]-9H-purin-9-yl}-1-(oxolan-2-yl)ethan-1-ol

>  <ClogP>
1,376

>  <logS>
-4,008

>  <HBD>
1

>  <HBA>
7

>  <TPSA>
85,53

>  <RotBonds>
6

$$$$

  Mrv1925 04172511352D          

 29 33  0  0  0  0            999 V2000
    1.9437   -2.1130    0.0000 O   0  0  0  0  0  0  0  0  0  0  0  0
    1.4358   -2.7631    0.0000 C   0  0  0  0  0  0  0  0  0  0  0  0
    0.8838   -2.1500    0.0000 C   0  0  0  0  0  0  0  0  0  0  0  0
    1.1387   -1.3654    0.0000 N   0  0  0  0  0  0  0  0  0  0  0  0
    0.6538   -0.6979    0.0000 C   0  0  0  0  0  0  0  0  0  0  0  0
    1.1387   -0.0305    0.0000 N   0  0  0  0  0  0  0  0  0  0  0  0
    1.9233   -0.2854    0.0000 C   0  0  0  0  0  0  0  0  0  0  0  0
    2.6378    0.1271    0.0000 C   0  0  0  0  0  0  0  0  0  0  0  0
    3.3523   -0.2854    0.0000 N   0  0  0  0  0  0  0  0  0  0  0  0
    3.3523   -1.1104    0.0000 C   0  0  0  0  0  0  0  0  0  0  0  0
    2.6378   -1.5229    0.0000 N   0  0  0  0  0  0  0  0  0  0  0  0
    1.9233   -1.1104    0.0000 C   0  0  0  0  0  0  0  0  0  0  0  0
    2.6378    0.9521    0.0000 N   0  0  0  0  0  0  0  0  0  0  0  0
    3.3523    1.3646    0.0000 C   0  0  0  0  0  0  0  0  0  0  0  0
    3.3523    2.1896    0.0000 C   0  0  0  0  0  0  0  0  0  0  0  0
    2.6848    2.6745    0.0000 C   0  0  0  0  0  0  0  0  0  0  0  0
    2.9398    3.4591    0.0000 C   0  0  0  0  0  0  0  0  0  0  0  0
    3.7648    3.4591    0.0000 C   0  0  0  0  0  0  0  0  0  0  0  0
    4.0197    2.6745    0.0000 O   0  0  0  0  0  0  0  0  0  0  0  0
    1.9233    1.3646    0.0000 C   0  0  0  0  0  0  0  0  0  0  0  0
    1.1697    1.0290    0.0000 C   0  0  0  0  0  0  0  0  0  0  0  0
    0.6176    1.6421    0.0000 C   0  0  0  0  0  0  0  0  0  0  0  0
    1.0301    2.3566    0.0000 C   0  0  0  0  0  0  0  0  0  0  0  0
    1.8371    2.1850    0.0000 C   0  0  0  0  0  0  0  0  0  0  0  0
    2.1642   -3.1504    0.0000 C   0  0  0  0  0  0  0  0  0  0  0  0
    2.1930   -3.9749    0.0000 C   0  0  0  0  0  0  0  0  0  0  0  0
    1.4934   -4.4121    0.0000 O   0  0  0  0  0  0  0  0  0  0  0  0
    0.7650   -4.0248    0.0000 C   0  0  0  0  0  0  0  0  0  0  0  0
    0.7362   -3.2003    0.0000 C   0  0  0  0  0  0  0  0  0  0  0  0
  1  2  1  0  0  0  0
  2  3  1  0  0  0  0
  3  4  1  0  0  0  0
  4  5  1  0  0  0  0
  5  6  2  0  0  0  0
  6  7  1  0  0  0  0
  7  8  2  0  0  0  0
  8  9  1  0  0  0  0
  9 10  2  0  0  0  0
 10 11  1  0  0  0  0
 11 12  2  0  0  0  0
  7 12  1  0  0  0  0
  4 12  1  0  0  0  0
  8 13  1  0  0  0  0
 13 14  1  0  0  0  0
 14 15  1  0  0  0  0
 15 16  1  0  0  0  0
 16 17  1  0  0  0  0
 17 18  1  0  0  0  0
 18 19  1  0  0  0  0
 15 19  1  0  0  0  0
 13 20  1  0  0  0  0
 20 21  1  0  0  0  0
 21 22  1  0  0  0  0
 22 23  1  0  0  0  0
 23 24  1  0  0  0  0
 20 24  1  0  0  0  0
  2 25  1  0  0  0  0
 25 26  1  0  0  0  0
 26 27  1  0  0  0  0
 27 28  1  0  0  0  0
 28 29  1  0  0  0  0
  2 29  1  0  0  0  0
M  END
>  <Catalog ID>
Z2760947034

>  <Plate_ID>
2026983-X50-02

>  <Well>
D08

>  <V, µL>
50

>  <Conc, mM>
10

>  <Formula>
C21H31N5O3

>  <MW>
401.5025

>  <Purity>
98.4

>  <PO>
5A-64168

>  <MW_salt>
0

>  <Stereochem.data>
Racemic or presumed racemic or meso

>  <Geometric.isomer>
None

>  <Chemical name>
4-[(6-{cyclopentyl[(oxolan-2-yl)methyl]amino}-9H-purin-9-yl)methyl]oxan-4-ol

>  <ClogP>
1,229

>  <logS>
-3,378

>  <HBD>
1

>  <HBA>
7

>  <TPSA>
85,53

>  <RotBonds>
6

$$$$

  Mrv1925 04172511352D          

 28 31  0  0  0  0            999 V2000
    1.1355    5.7750    0.0000 C   0  0  0  0  0  0  0  0  0  0  0  0
    1.1355    4.9500    0.0000 C   0  0  0  0  0  0  0  0  0  0  0  0
    1.8500    4.5375    0.0000 C   0  0  0  0  0  0  0  0  0  0  0  0
    2.5645    4.9500    0.0000 O   0  0  0  0  0  0  0  0  0  0  0  0
    1.8500    3.7125    0.0000 N   0  0  0  0  0  0  0  0  0  0  0  0
    2.5645    3.3000    0.0000 C   0  0  0  0  0  0  0  0  0  0  0  0
    3.2789    3.7125    0.0000 C   0  0  0  0  0  0  0  0  0  0  0  0
    3.9934    3.3000    0.0000 C   0  0  0  0  0  0  0  0  0  0  0  0
    3.9934    2.4750    0.0000 C   0  0  0  0  0  0  0  0  0  0  0  0
    3.2789    2.0625    0.0000 N   0  0  0  0  0  0  0  0  0  0  0  0
    2.5645    2.4750    0.0000 C   0  0  0  0  0  0  0  0  0  0  0  0
    3.2789    1.2375    0.0000 C   0  0  0  0  0  0  0  0  0  0  0  0
    3.9934    0.8250    0.0000 N   0  0  0  0  0  0  0  0  0  0  0  0
    3.9934    0.0000    0.0000 C   0  0  0  0  0  0  0  0  0  0  0  0
    3.2789   -0.4125    0.0000 N   0  0  0  0  0  0  0  0  0  0  0  0
    2.5645    0.0000    0.0000 C   0  0  0  0  0  0  0  0  0  0  0  0
    2.5645    0.8250    0.0000 C   0  0  0  0  0  0  0  0  0  0  0  0
    1.7798    1.0799    0.0000 N   0  0  0  0  0  0  0  0  0  0  0  0
    1.2949    0.4125    0.0000 C   0  0  0  0  0  0  0  0  0  0  0  0
    1.7798   -0.2549    0.0000 N   0  0  0  0  0  0  0  0  0  0  0  0
    1.5249   -1.0396    0.0000 C   0  0  0  0  0  0  0  0  0  0  0  0
    2.0769   -1.6527    0.0000 C   0  0  0  0  0  0  0  0  0  0  0  0
    1.4095   -2.1376    0.0000 O   0  0  0  0  0  0  0  0  0  0  0  0
    2.6290   -1.0396    0.0000 C   0  0  0  0  0  0  0  0  0  0  0  0
    3.3826   -1.3751    0.0000 C   0  0  0  0  0  0  0  0  0  0  0  0
    3.2964   -2.1956    0.0000 O   0  0  0  0  0  0  0  0  0  0  0  0
    2.4894   -2.3671    0.0000 C   0  0  0  0  0  0  0  0  0  0  0  0
    2.1539   -3.1208    0.0000 C   0  0  0  0  0  0  0  0  0  0  0  0
  1  2  1  0  0  0  0
  2  3  1  0  0  0  0
  3  4  2  0  0  0  0
  3  5  1  0  0  0  0
  5  6  1  0  0  0  0
  6  7  1  0  0  0  0
  7  8  1  0  0  0  0
  8  9  1  0  0  0  0
  9 10  1  0  0  0  0
 10 11  1  0  0  0  0
  6 11  1  0  0  0  0
 10 12  1  0  0  0  0
 12 13  1  0  0  0  0
 13 14  2  0  0  0  0
 14 15  1  0  0  0  0
 15 16  2  0  0  0  0
 16 17  1  0  0  0  0
 12 17  2  0  0  0  0
 17 18  1  0  0  0  0
 18 19  2  0  0  0  0
 19 20  1  0  0  0  0
 16 20  1  0  0  0  0
 20 21  1  0  0  0  0
 21 22  1  0  0  0  0
 22 23  1  0  0  0  0
 22 24  1  0  0  0  0
 24 25  1  0  0  0  0
 25 26  1  0  0  0  0
 26 27  1  0  0  0  0
 22 27  1  0  0  0  0
 27 28  1  0  0  0  0
M  END
>  <Catalog ID>
Z2760943001

>  <Plate_ID>
2026983-X50-02

>  <Well>
E08

>  <V, µL>
50

>  <Conc, mM>
10

>  <Formula>
C19H28N6O3

>  <MW>
388.464

>  <Purity>
100

>  <PO>
5A-64168

>  <MW_salt>
0

>  <Stereochem.data>
Diastereomeric mixture

>  <Geometric.isomer>
None

>  <Chemical name>
N-(1-{9-[(3-hydroxy-2-methyloxolan-3-yl)methyl]-9H-purin-6-yl}piperidin-3-yl)propanamide

>  <ClogP>
-0,054

>  <logS>
-3,383

>  <HBD>
2

>  <HBA>
7

>  <TPSA>
105,4

>  <RotBonds>
5

$$$$

  Mrv1925 04172511352D          

 29 33  0  0  0  0            999 V2000
   -0.9037   -3.1848    0.0000 O   0  0  0  0  0  0  0  0  0  0  0  0
   -0.2118   -3.6342    0.0000 C   0  0  0  0  0  0  0  0  0  0  0  0
    0.5232   -3.2596    0.0000 C   0  0  0  0  0  0  0  0  0  0  0  0
    0.8978   -3.9947    0.0000 C   0  0  0  0  0  0  0  0  0  0  0  0
    1.7217   -4.0379    0.0000 O   0  0  0  0  0  0  0  0  0  0  0  0
    0.1487   -2.5245    0.0000 C   0  0  0  0  0  0  0  0  0  0  0  0
    0.8838   -2.1500    0.0000 C   0  0  0  0  0  0  0  0  0  0  0  0
    1.2583   -2.8851    0.0000 C   0  0  0  0  0  0  0  0  0  0  0  0
    1.1387   -1.3654    0.0000 N   0  0  0  0  0  0  0  0  0  0  0  0
    0.6538   -0.6979    0.0000 C   0  0  0  0  0  0  0  0  0  0  0  0
    1.1387   -0.0305    0.0000 N   0  0  0  0  0  0  0  0  0  0  0  0
    1.9233   -0.2854    0.0000 C   0  0  0  0  0  0  0  0  0  0  0  0
    2.6378    0.1271    0.0000 C   0  0  0  0  0  0  0  0  0  0  0  0
    3.3523   -0.2854    0.0000 N   0  0  0  0  0  0  0  0  0  0  0  0
    3.3523   -1.1104    0.0000 C   0  0  0  0  0  0  0  0  0  0  0  0
    2.6378   -1.5229    0.0000 N   0  0  0  0  0  0  0  0  0  0  0  0
    1.9233   -1.1104    0.0000 C   0  0  0  0  0  0  0  0  0  0  0  0
    2.6378    0.9521    0.0000 N   0  0  0  0  0  0  0  0  0  0  0  0
    1.9233    1.3646    0.0000 C   0  0  0  0  0  0  0  0  0  0  0  0
    1.9233    2.1896    0.0000 C   0  0  0  0  0  0  0  0  0  0  0  0
    2.6378    2.6021    0.0000 O   0  0  0  0  0  0  0  0  0  0  0  0
    3.3523    2.1896    0.0000 C   0  0  0  0  0  0  0  0  0  0  0  0
    4.0668    2.6021    0.0000 C   0  0  0  0  0  0  0  0  0  0  0  0
    4.7812    2.1896    0.0000 O   0  0  0  0  0  0  0  0  0  0  0  0
    5.4957    2.6021    0.0000 C   0  0  0  0  0  0  0  0  0  0  0  0
    6.2102    2.1896    0.0000 C   0  0  0  0  0  0  0  0  0  0  0  0
    7.0352    2.1896    0.0000 C   0  0  0  0  0  0  0  0  0  0  0  0
    6.6227    1.4751    0.0000 C   0  0  0  0  0  0  0  0  0  0  0  0
    3.3523    1.3646    0.0000 C   0  0  0  0  0  0  0  0  0  0  0  0
  1  2  1  0  0  0  0
  2  3  1  0  0  0  0
  3  4  1  0  0  0  0
  4  5  1  0  0  0  0
  3  6  1  0  0  0  0
  6  7  1  0  0  0  0
  7  8  1  0  0  0  0
  3  8  1  0  0  0  0
  7  9  1  0  0  0  0
  9 10  1  0  0  0  0
 10 11  2  0  0  0  0
 11 12  1  0  0  0  0
 12 13  1  0  0  0  0
 13 14  2  0  0  0  0
 14 15  1  0  0  0  0
 15 16  2  0  0  0  0
 16 17  1  0  0  0  0
 12 17  2  0  0  0  0
  9 17  1  0  0  0  0
 13 18  1  0  0  0  0
 18 19  1  0  0  0  0
 19 20  1  0  0  0  0
 20 21  1  0  0  0  0
 21 22  1  0  0  0  0
 22 23  1  0  0  0  0
 23 24  1  0  0  0  0
 24 25  1  0  0  0  0
 25 26  1  0  0  0  0
 26 27  1  0  0  0  0
 27 28  1  0  0  0  0
 26 28  1  0  0  0  0
 22 29  1  0  0  0  0
 18 29  1  0  0  0  0
M  END
>  <Catalog ID>
Z2760963802

>  <Plate_ID>
2026983-X50-02

>  <Well>
F08

>  <V, µL>
50

>  <Conc, mM>
10

>  <Formula>
C20H29N5O4

>  <MW>
403.4754

>  <Purity>
100

>  <PO>
5A-64168

>  <MW_salt>
0

>  <Stereochem.data>
Racemic or presumed racemic or meso

>  <Geometric.isomer>
None

>  <Chemical name>
[3-(6-{2-[(cyclopropylmethoxy)methyl]morpholin-4-yl}-9H-purin-9-yl)-1-(hydroxymethyl)cyclobutyl]methanol

>  <ClogP>
-0,691

>  <logS>
-1,821

>  <HBD>
2

>  <HBA>
8

>  <TPSA>
105,76

>  <RotBonds>
8

$$$$

  Mrv1925 04172511352D          

 26 29  0  0  0  0            999 V2000
    2.5645    3.3000    0.0000 C   0  0  0  0  0  0  0  0  0  0  0  0
    2.5645    2.4750    0.0000 C   0  0  0  0  0  0  0  0  0  0  0  0
    3.2789    2.0625    0.0000 N   0  0  0  0  0  0  0  0  0  0  0  0
    3.2789    1.2375    0.0000 C   0  0  0  0  0  0  0  0  0  0  0  0
    3.9934    0.8250    0.0000 N   0  0  0  0  0  0  0  0  0  0  0  0
    3.9934    0.0000    0.0000 C   0  0  0  0  0  0  0  0  0  0  0  0
    3.2789   -0.4125    0.0000 N   0  0  0  0  0  0  0  0  0  0  0  0
    2.5645    0.0000    0.0000 C   0  0  0  0  0  0  0  0  0  0  0  0
    2.5645    0.8250    0.0000 C   0  0  0  0  0  0  0  0  0  0  0  0
    1.7798    1.0799    0.0000 N   0  0  0  0  0  0  0  0  0  0  0  0
    1.2949    0.4125    0.0000 C   0  0  0  0  0  0  0  0  0  0  0  0
    1.7798   -0.2549    0.0000 N   0  0  0  0  0  0  0  0  0  0  0  0
    1.5249   -1.0396    0.0000 C   0  0  0  0  0  0  0  0  0  0  0  0
    0.7179   -1.2111    0.0000 C   0  0  0  0  0  0  0  0  0  0  0  0
    0.6891   -0.3866    0.0000 O   0  0  0  0  0  0  0  0  0  0  0  0
    1.0270   -1.9760    0.0000 C   0  0  0  0  0  0  0  0  0  0  0  0
    0.5191   -2.6261    0.0000 C   0  0  0  0  0  0  0  0  0  0  0  0
   -0.2979   -2.5113    0.0000 O   0  0  0  0  0  0  0  0  0  0  0  0
   -0.6070   -1.7464    0.0000 C   0  0  0  0  0  0  0  0  0  0  0  0
   -0.0990   -1.0963    0.0000 C   0  0  0  0  0  0  0  0  0  0  0  0
    3.9934    2.4750    0.0000 C   0  0  0  0  0  0  0  0  0  0  0  0
    4.0796    3.2955    0.0000 C   0  0  0  0  0  0  0  0  0  0  0  0
    4.8866    3.4670    0.0000 C   0  0  0  0  0  0  0  0  0  0  0  0
    5.2991    2.7525    0.0000 N   0  0  0  0  0  0  0  0  0  0  0  0
    4.7471    2.1394    0.0000 C   0  0  0  0  0  0  0  0  0  0  0  0
    4.9186    1.3325    0.0000 O   0  0  0  0  0  0  0  0  0  0  0  0
  1  2  1  0  0  0  0
  2  3  1  0  0  0  0
  3  4  1  0  0  0  0
  4  5  1  0  0  0  0
  5  6  2  0  0  0  0
  6  7  1  0  0  0  0
  7  8  2  0  0  0  0
  8  9  1  0  0  0  0
  4  9  2  0  0  0  0
  9 10  1  0  0  0  0
 10 11  2  0  0  0  0
 11 12  1  0  0  0  0
  8 12  1  0  0  0  0
 12 13  1  0  0  0  0
 13 14  1  0  0  0  0
 14 15  1  0  0  0  0
 14 16  1  0  0  0  0
 16 17  1  0  0  0  0
 17 18  1  0  0  0  0
 18 19  1  0  0  0  0
 19 20  1  0  0  0  0
 14 20  1  0  0  0  0
  3 21  1  0  0  0  0
 21 22  1  0  0  0  0
 22 23  1  0  0  0  0
 23 24  1  0  0  0  0
 24 25  1  0  0  0  0
 21 25  1  0  0  0  0
 25 26  2  0  0  0  0
M  END
>  <Catalog ID>
Z2760965781

>  <Plate_ID>
2026983-X50-02

>  <Well>
G08

>  <V, µL>
50

>  <Conc, mM>
10

>  <Formula>
C17H24N6O3

>  <MW>
360.4109

>  <Purity>
97.25

>  <PO>
5A-64168

>  <MW_salt>
0

>  <Stereochem.data>
Racemic or presumed racemic or meso

>  <Geometric.isomer>
None

>  <Chemical name>
3-[ethyl({9-[(4-hydroxyoxan-4-yl)methyl]-9H-purin-6-yl})amino]pyrrolidin-2-one

>  <ClogP>
-1,315

>  <logS>
-2,851

>  <HBD>
2

>  <HBA>
7

>  <TPSA>
105,4

>  <RotBonds>
5

$$$$

  Mrv1925 04172511352D          

 28 32  0  0  0  0            999 V2000
    5.9123    6.1748    0.0000 C   0  0  0  0  0  0  0  0  0  0  0  0
    6.5254    5.6228    0.0000 C   0  0  0  0  0  0  0  0  0  0  0  0
    7.3324    5.7943    0.0000 O   0  0  0  0  0  0  0  0  0  0  0  0
    7.7449    5.0798    0.0000 C   0  0  0  0  0  0  0  0  0  0  0  0
    7.1929    4.4667    0.0000 C   0  0  0  0  0  0  0  0  0  0  0  0
    6.4392    4.8023    0.0000 C   0  0  0  0  0  0  0  0  0  0  0  0
    6.4392    3.9773    0.0000 C   0  0  0  0  0  0  0  0  0  0  0  0
    5.7247    3.5648    0.0000 N   0  0  0  0  0  0  0  0  0  0  0  0
    5.0102    3.9773    0.0000 C   0  0  0  0  0  0  0  0  0  0  0  0
    5.0102    4.8023    0.0000 C   0  0  0  0  0  0  0  0  0  0  0  0
    4.2958    5.2148    0.0000 C   0  0  0  0  0  0  0  0  0  0  0  0
    5.7247    5.2148    0.0000 O   0  0  0  0  0  0  0  0  0  0  0  0
    5.7247    2.7398    0.0000 C   0  0  0  0  0  0  0  0  0  0  0  0
    6.4392    2.3273    0.0000 N   0  0  0  0  0  0  0  0  0  0  0  0
    6.4392    1.5023    0.0000 C   0  0  0  0  0  0  0  0  0  0  0  0
    5.7247    1.0898    0.0000 N   0  0  0  0  0  0  0  0  0  0  0  0
    5.0102    1.5023    0.0000 C   0  0  0  0  0  0  0  0  0  0  0  0
    5.0102    2.3273    0.0000 C   0  0  0  0  0  0  0  0  0  0  0  0
    4.2256    2.5822    0.0000 N   0  0  0  0  0  0  0  0  0  0  0  0
    3.7407    1.9148    0.0000 C   0  0  0  0  0  0  0  0  0  0  0  0
    4.2256    1.2474    0.0000 N   0  0  0  0  0  0  0  0  0  0  0  0
    3.9707    0.4627    0.0000 C   0  0  0  0  0  0  0  0  0  0  0  0
    4.5227   -0.1504    0.0000 C   0  0  0  0  0  0  0  0  0  0  0  0
    3.8553   -0.6353    0.0000 O   0  0  0  0  0  0  0  0  0  0  0  0
    5.0747    0.4627    0.0000 C   0  0  0  0  0  0  0  0  0  0  0  0
    5.8284    0.1272    0.0000 C   0  0  0  0  0  0  0  0  0  0  0  0
    5.7422   -0.6933    0.0000 O   0  0  0  0  0  0  0  0  0  0  0  0
    4.9352   -0.8648    0.0000 C   0  0  0  0  0  0  0  0  0  0  0  0
  1  2  1  0  0  0  0
  2  3  1  0  0  0  0
  3  4  1  0  0  0  0
  4  5  1  0  0  0  0
  5  6  1  0  0  0  0
  2  6  1  0  0  0  0
  6  7  1  0  0  0  0
  7  8  1  0  0  0  0
  8  9  1  0  0  0  0
  9 10  1  0  0  0  0
 10 11  1  0  0  0  0
 10 12  1  0  0  0  0
  6 12  1  0  0  0  0
  8 13  1  0  0  0  0
 13 14  1  0  0  0  0
 14 15  2  0  0  0  0
 15 16  1  0  0  0  0
 16 17  2  0  0  0  0
 17 18  1  0  0  0  0
 13 18  2  0  0  0  0
 18 19  1  0  0  0  0
 19 20  2  0  0  0  0
 20 21  1  0  0  0  0
 17 21  1  0  0  0  0
 21 22  1  0  0  0  0
 22 23  1  0  0  0  0
 23 24  1  0  0  0  0
 23 25  1  0  0  0  0
 25 26  1  0  0  0  0
 26 27  1  0  0  0  0
 27 28  1  0  0  0  0
 23 28  1  0  0  0  0
M  END
>  <Catalog ID>
Z2760968142

>  <Plate_ID>
2026983-X50-02

>  <Well>
H08

>  <V, µL>
50

>  <Conc, mM>
10

>  <Formula>
C19H27N5O4

>  <MW>
389.4488

>  <Purity>
100

>  <PO>
5A-64168

>  <MW_salt>
0

>  <Stereochem.data>
Diastereomeric mixture

>  <Geometric.isomer>
None

>  <Chemical name>
3-[(6-{1,7-dimethyl-2,6-dioxa-9-azaspiro[4.5]decan-9-yl}-9H-purin-9-yl)methyl]oxolan-3-ol

>  <ClogP>
-0,358

>  <logS>
-3,647

>  <HBD>
1

>  <HBA>
8

>  <TPSA>
94,76

>  <RotBonds>
3

$$$$

  Mrv1925 04172511352D          

 28 31  0  0  0  0            999 V2000
    1.8500    6.1875    0.0000 C   0  0  0  0  0  0  0  0  0  0  0  0
    2.5645    5.7750    0.0000 O   0  0  0  0  0  0  0  0  0  0  0  0
    2.5645    4.9500    0.0000 C   0  0  0  0  0  0  0  0  0  0  0  0
    3.2789    4.5375    0.0000 C   0  0  0  0  0  0  0  0  0  0  0  0
    3.2789    3.7125    0.0000 N   0  0  0  0  0  0  0  0  0  0  0  0
    3.9934    3.3000    0.0000 C   0  0  0  0  0  0  0  0  0  0  0  0
    3.9934    2.4750    0.0000 C   0  0  0  0  0  0  0  0  0  0  0  0
    3.2789    2.0625    0.0000 N   0  0  0  0  0  0  0  0  0  0  0  0
    2.5645    2.4750    0.0000 C   0  0  0  0  0  0  0  0  0  0  0  0
    2.5645    3.3000    0.0000 C   0  0  0  0  0  0  0  0  0  0  0  0
    1.8500    3.7125    0.0000 C   0  0  0  0  0  0  0  0  0  0  0  0
    3.2789    1.2375    0.0000 C   0  0  0  0  0  0  0  0  0  0  0  0
    3.9934    0.8250    0.0000 N   0  0  0  0  0  0  0  0  0  0  0  0
    3.9934    0.0000    0.0000 C   0  0  0  0  0  0  0  0  0  0  0  0
    3.2789   -0.4125    0.0000 N   0  0  0  0  0  0  0  0  0  0  0  0
    2.5645    0.0000    0.0000 C   0  0  0  0  0  0  0  0  0  0  0  0
    2.5645    0.8250    0.0000 C   0  0  0  0  0  0  0  0  0  0  0  0
    1.7798    1.0799    0.0000 N   0  0  0  0  0  0  0  0  0  0  0  0
    1.2949    0.4125    0.0000 C   0  0  0  0  0  0  0  0  0  0  0  0
    1.7798   -0.2549    0.0000 N   0  0  0  0  0  0  0  0  0  0  0  0
    1.5249   -1.0396    0.0000 C   0  0  0  0  0  0  0  0  0  0  0  0
    1.8994   -1.7746    0.0000 C   0  0  0  0  0  0  0  0  0  0  0  0
    1.1644   -2.1492    0.0000 C   0  0  0  0  0  0  0  0  0  0  0  0
    1.5389   -2.8843    0.0000 C   0  0  0  0  0  0  0  0  0  0  0  0
    2.3628   -2.9274    0.0000 O   0  0  0  0  0  0  0  0  0  0  0  0
    0.4293   -2.5237    0.0000 C   0  0  0  0  0  0  0  0  0  0  0  0
   -0.2626   -2.0744    0.0000 O   0  0  0  0  0  0  0  0  0  0  0  0
    0.7898   -1.4141    0.0000 C   0  0  0  0  0  0  0  0  0  0  0  0
  1  2  1  0  0  0  0
  2  3  1  0  0  0  0
  3  4  1  0  0  0  0
  4  5  1  0  0  0  0
  5  6  1  0  0  0  0
  6  7  1  0  0  0  0
  7  8  1  0  0  0  0
  8  9  1  0  0  0  0
  9 10  1  0  0  0  0
  5 10  1  0  0  0  0
 10 11  1  0  0  0  0
  8 12  1  0  0  0  0
 12 13  1  0  0  0  0
 13 14  2  0  0  0  0
 14 15  1  0  0  0  0
 15 16  2  0  0  0  0
 16 17  1  0  0  0  0
 12 17  2  0  0  0  0
 17 18  1  0  0  0  0
 18 19  2  0  0  0  0
 19 20  1  0  0  0  0
 16 20  1  0  0  0  0
 20 21  1  0  0  0  0
 21 22  1  0  0  0  0
 22 23  1  0  0  0  0
 23 24  1  0  0  0  0
 24 25  1  0  0  0  0
 23 26  1  0  0  0  0
 26 27  1  0  0  0  0
 23 28  1  0  0  0  0
 21 28  1  0  0  0  0
M  END
>  <Catalog ID>
Z2760946985

>  <Plate_ID>
2026983-X50-02

>  <Well>
A09

>  <V, µL>
50

>  <Conc, mM>
10

>  <Formula>
C19H30N6O3

>  <MW>
390.4799

>  <Purity>
97.21

>  <PO>
5A-64168

>  <MW_salt>
0

>  <Stereochem.data>
Racemic or presumed racemic or meso

>  <Geometric.isomer>
None

>  <Chemical name>
[1-(hydroxymethyl)-3-{6-[4-(2-methoxyethyl)-3-methylpiperazin-1-yl]-9H-purin-9-yl}cyclobutyl]methanol

>  <ClogP>
-0,331

>  <logS>
-1,09

>  <HBD>
2

>  <HBA>
8

>  <TPSA>
99,77

>  <RotBonds>
7

$$$$

  Mrv1925 04172511352D          

 25 28  0  0  0  0            999 V2000
    6.4328    4.7084    0.0000 C   0  0  0  0  0  0  0  0  0  0  0  0
    5.7183    4.2959    0.0000 C   0  0  0  0  0  0  0  0  0  0  0  0
    5.7183    3.4709    0.0000 O   0  0  0  0  0  0  0  0  0  0  0  0
    5.0038    3.0584    0.0000 C   0  0  0  0  0  0  0  0  0  0  0  0
    4.7903    2.2615    0.0000 C   0  0  0  0  0  0  0  0  0  0  0  0
    3.9934    2.4750    0.0000 C   0  0  0  0  0  0  0  0  0  0  0  0
    4.2069    3.2719    0.0000 C   0  0  0  0  0  0  0  0  0  0  0  0
    3.2789    2.0625    0.0000 N   0  0  0  0  0  0  0  0  0  0  0  0
    2.5645    2.4750    0.0000 C   0  0  0  0  0  0  0  0  0  0  0  0
    3.2789    1.2375    0.0000 C   0  0  0  0  0  0  0  0  0  0  0  0
    3.9934    0.8250    0.0000 N   0  0  0  0  0  0  0  0  0  0  0  0
    3.9934    0.0000    0.0000 C   0  0  0  0  0  0  0  0  0  0  0  0
    3.2789   -0.4125    0.0000 N   0  0  0  0  0  0  0  0  0  0  0  0
    2.5645    0.0000    0.0000 C   0  0  0  0  0  0  0  0  0  0  0  0
    2.5645    0.8250    0.0000 C   0  0  0  0  0  0  0  0  0  0  0  0
    1.7798    1.0799    0.0000 N   0  0  0  0  0  0  0  0  0  0  0  0
    1.2949    0.4125    0.0000 C   0  0  0  0  0  0  0  0  0  0  0  0
    1.7798   -0.2549    0.0000 N   0  0  0  0  0  0  0  0  0  0  0  0
    1.5249   -1.0396    0.0000 C   0  0  0  0  0  0  0  0  0  0  0  0
    0.7179   -1.2111    0.0000 C   0  0  0  0  0  0  0  0  0  0  0  0
    0.5464   -0.4041    0.0000 C   0  0  0  0  0  0  0  0  0  0  0  0
   -0.2382   -0.1492    0.0000 O   0  0  0  0  0  0  0  0  0  0  0  0
    0.8895   -2.0181    0.0000 C   0  0  0  0  0  0  0  0  0  0  0  0
    0.0825   -2.1896    0.0000 O   0  0  0  0  0  0  0  0  0  0  0  0
   -0.0890   -1.3826    0.0000 C   0  0  0  0  0  0  0  0  0  0  0  0
  1  2  1  0  0  0  0
  2  3  1  0  0  0  0
  3  4  1  0  0  0  0
  4  5  1  0  0  0  0
  5  6  1  0  0  0  0
  6  7  1  0  0  0  0
  4  7  1  0  0  0  0
  6  8  1  0  0  0  0
  8  9  1  0  0  0  0
  8 10  1  0  0  0  0
 10 11  1  0  0  0  0
 11 12  2  0  0  0  0
 12 13  1  0  0  0  0
 13 14  2  0  0  0  0
 14 15  1  0  0  0  0
 10 15  2  0  0  0  0
 15 16  1  0  0  0  0
 16 17  2  0  0  0  0
 17 18  1  0  0  0  0
 14 18  1  0  0  0  0
 18 19  1  0  0  0  0
 19 20  1  0  0  0  0
 20 21  1  0  0  0  0
 21 22  1  0  0  0  0
 20 23  1  0  0  0  0
 23 24  1  0  0  0  0
 24 25  1  0  0  0  0
 20 25  1  0  0  0  0
M  END
>  <Catalog ID>
Z2760973237

>  <Plate_ID>
2026983-X50-02

>  <Well>
B09

>  <V, µL>
50

>  <Conc, mM>
10

>  <Formula>
C17H25N5O3

>  <MW>
347.4121

>  <Purity>
100

>  <PO>
5A-64168

>  <MW_salt>
0

>  <Stereochem.data>
Diastereomeric mixture

>  <Geometric.isomer>
Unequal mixture of geometric isomers

>  <Chemical name>
[3-({6-[(3-ethoxycyclobutyl)(methyl)amino]-9H-purin-9-yl}methyl)oxetan-3-yl]methanol

>  <ClogP>
-0,336

>  <logS>
-2,341

>  <HBD>
1

>  <HBA>
7

>  <TPSA>
85,53

>  <RotBonds>
7

$$$$

  Mrv1925 04172511352D          

 28 31  0  0  0  0            999 V2000
    1.1355    5.7750    0.0000 O   0  0  0  0  0  0  0  0  0  0  0  0
    1.1355    4.9500    0.0000 C   0  0  0  0  0  0  0  0  0  0  0  0
    1.8500    4.5375    0.0000 C   0  0  0  0  0  0  0  0  0  0  0  0
    1.8500    3.7125    0.0000 O   0  0  0  0  0  0  0  0  0  0  0  0
    2.5645    3.3000    0.0000 C   0  0  0  0  0  0  0  0  0  0  0  0
    3.2789    3.7125    0.0000 C   0  0  0  0  0  0  0  0  0  0  0  0
    3.9934    3.3000    0.0000 C   0  0  0  0  0  0  0  0  0  0  0  0
    3.9934    2.4750    0.0000 C   0  0  0  0  0  0  0  0  0  0  0  0
    3.2789    2.0625    0.0000 N   0  0  0  0  0  0  0  0  0  0  0  0
    2.5645    2.4750    0.0000 C   0  0  0  0  0  0  0  0  0  0  0  0
    3.2789    1.2375    0.0000 C   0  0  0  0  0  0  0  0  0  0  0  0
    3.9934    0.8250    0.0000 N   0  0  0  0  0  0  0  0  0  0  0  0
    3.9934    0.0000    0.0000 C   0  0  0  0  0  0  0  0  0  0  0  0
    3.2789   -0.4125    0.0000 N   0  0  0  0  0  0  0  0  0  0  0  0
    2.5645    0.0000    0.0000 C   0  0  0  0  0  0  0  0  0  0  0  0
    2.5645    0.8250    0.0000 C   0  0  0  0  0  0  0  0  0  0  0  0
    1.7798    1.0799    0.0000 N   0  0  0  0  0  0  0  0  0  0  0  0
    1.2949    0.4125    0.0000 C   0  0  0  0  0  0  0  0  0  0  0  0
    1.7798   -0.2549    0.0000 N   0  0  0  0  0  0  0  0  0  0  0  0
    1.5249   -1.0396    0.0000 C   0  0  0  0  0  0  0  0  0  0  0  0
    2.0769   -1.6527    0.0000 C   0  0  0  0  0  0  0  0  0  0  0  0
    2.8839   -1.4811    0.0000 C   0  0  0  0  0  0  0  0  0  0  0  0
    3.4359   -2.0942    0.0000 O   0  0  0  0  0  0  0  0  0  0  0  0
    1.8220   -2.4373    0.0000 C   0  0  0  0  0  0  0  0  0  0  0  0
    2.3069   -3.1047    0.0000 C   0  0  0  0  0  0  0  0  0  0  0  0
    1.8220   -3.7722    0.0000 C   0  0  0  0  0  0  0  0  0  0  0  0
    1.0374   -3.5172    0.0000 O   0  0  0  0  0  0  0  0  0  0  0  0
    1.0374   -2.6922    0.0000 C   0  0  0  0  0  0  0  0  0  0  0  0
  1  2  1  0  0  0  0
  2  3  1  0  0  0  0
  3  4  1  0  0  0  0
  4  5  1  0  0  0  0
  5  6  1  0  0  0  0
  6  7  1  0  0  0  0
  7  8  1  0  0  0  0
  8  9  1  0  0  0  0
  9 10  1  0  0  0  0
  5 10  1  0  0  0  0
  9 11  1  0  0  0  0
 11 12  1  0  0  0  0
 12 13  2  0  0  0  0
 13 14  1  0  0  0  0
 14 15  2  0  0  0  0
 15 16  1  0  0  0  0
 11 16  2  0  0  0  0
 16 17  1  0  0  0  0
 17 18  2  0  0  0  0
 18 19  1  0  0  0  0
 15 19  1  0  0  0  0
 19 20  1  0  0  0  0
 20 21  1  0  0  0  0
 21 22  1  0  0  0  0
 22 23  1  0  0  0  0
 21 24  1  0  0  0  0
 24 25  1  0  0  0  0
 25 26  1  0  0  0  0
 26 27  1  0  0  0  0
 27 28  1  0  0  0  0
 24 28  1  0  0  0  0
M  END
>  <Catalog ID>
Z2760962451

>  <Plate_ID>
2026983-X50-02

>  <Well>
C09

>  <V, µL>
50

>  <Conc, mM>
10

>  <Formula>
C19H29N5O4

>  <MW>
391.4647

>  <Purity>
100

>  <PO>
5A-64168

>  <MW_salt>
0

>  <Stereochem.data>
Diastereomeric mixture

>  <Geometric.isomer>
None

>  <Chemical name>
3-{6-[3-(2-hydroxyethoxy)piperidin-1-yl]-9H-purin-9-yl}-2-(oxolan-3-yl)propan-1-ol

>  <ClogP>
-0,945

>  <logS>
-2,229

>  <HBD>
2

>  <HBA>
8

>  <TPSA>
105,76

>  <RotBonds>
8

$$$$

  Mrv1925 04172511352D          

 27 31  0  0  0  0            999 V2000
    6.3002    4.1504    0.0000 C   0  0  0  0  0  0  0  0  0  0  0  0
    6.7052    3.4316    0.0000 C   0  0  0  0  0  0  0  0  0  0  0  0
    7.5247    3.3368    0.0000 O   0  0  0  0  0  0  0  0  0  0  0  0
    7.6878    2.5281    0.0000 C   0  0  0  0  0  0  0  0  0  0  0  0
    6.9690    2.1231    0.0000 C   0  0  0  0  0  0  0  0  0  0  0  0
    6.3617    2.6815    0.0000 C   0  0  0  0  0  0  0  0  0  0  0  0
    5.7372    2.1424    0.0000 O   0  0  0  0  0  0  0  0  0  0  0  0
    5.5771    2.9364    0.0000 C   0  0  0  0  0  0  0  0  0  0  0  0
    4.9640    2.3844    0.0000 N   0  0  0  0  0  0  0  0  0  0  0  0
    5.0503    1.5639    0.0000 C   0  0  0  0  0  0  0  0  0  0  0  0
    4.2966    1.2283    0.0000 N   0  0  0  0  0  0  0  0  0  0  0  0
    3.7445    1.8414    0.0000 C   0  0  0  0  0  0  0  0  0  0  0  0
    2.9195    1.8414    0.0000 C   0  0  0  0  0  0  0  0  0  0  0  0
    2.5070    2.5559    0.0000 N   0  0  0  0  0  0  0  0  0  0  0  0
    2.9195    3.2704    0.0000 C   0  0  0  0  0  0  0  0  0  0  0  0
    3.7445    3.2704    0.0000 N   0  0  0  0  0  0  0  0  0  0  0  0
    4.1570    2.5559    0.0000 C   0  0  0  0  0  0  0  0  0  0  0  0
    2.5070    1.1270    0.0000 N   0  0  0  0  0  0  0  0  0  0  0  0
    2.9195    0.4125    0.0000 C   0  0  0  0  0  0  0  0  0  0  0  0
    2.5070   -0.3020    0.0000 C   0  0  0  0  0  0  0  0  0  0  0  0
    1.6820   -0.3020    0.0000 O   0  0  0  0  0  0  0  0  0  0  0  0
    1.2695    0.4125    0.0000 C   0  0  0  0  0  0  0  0  0  0  0  0
    0.7846   -0.2549    0.0000 C   0  0  0  0  0  0  0  0  0  0  0  0
    0.0000   -0.0000    0.0000 C   0  0  0  0  0  0  0  0  0  0  0  0
   -0.0000    0.8250    0.0000 O   0  0  0  0  0  0  0  0  0  0  0  0
    0.7846    1.0799    0.0000 C   0  0  0  0  0  0  0  0  0  0  0  0
    1.6820    1.1270    0.0000 C   0  0  0  0  0  0  0  0  0  0  0  0
  1  2  1  0  0  0  0
  2  3  1  0  0  0  0
  3  4  1  0  0  0  0
  4  5  1  0  0  0  0
  5  6  1  0  0  0  0
  2  6  1  0  0  0  0
  6  7  1  0  0  0  0
  6  8  1  0  0  0  0
  8  9  1  0  0  0  0
  9 10  1  0  0  0  0
 10 11  2  0  0  0  0
 11 12  1  0  0  0  0
 12 13  1  0  0  0  0
 13 14  2  0  0  0  0
 14 15  1  0  0  0  0
 15 16  2  0  0  0  0
 16 17  1  0  0  0  0
 12 17  2  0  0  0  0
  9 17  1  0  0  0  0
 13 18  1  0  0  0  0
 18 19  1  0  0  0  0
 19 20  1  0  0  0  0
 20 21  1  0  0  0  0
 21 22  1  0  0  0  0
 22 23  1  0  0  0  0
 23 24  1  0  0  0  0
 24 25  1  0  0  0  0
 25 26  1  0  0  0  0
 22 26  1  0  0  0  0
 22 27  1  0  0  0  0
 18 27  1  0  0  0  0
M  END
>  <Catalog ID>
Z2760964377

>  <Plate_ID>
2026983-X50-02

>  <Well>
D09

>  <V, µL>
50

>  <Conc, mM>
10

>  <Formula>
C18H25N5O4

>  <MW>
375.4222

>  <Purity>
95.64

>  <PO>
5A-64168

>  <MW_salt>
0

>  <Stereochem.data>
Diastereomeric mixture

>  <Geometric.isomer>
None

>  <Chemical name>
3-[(6-{2,6-dioxa-9-azaspiro[4.5]decan-9-yl}-9H-purin-9-yl)methyl]-2-methyloxolan-3-ol

>  <ClogP>
-0,877

>  <logS>
-2,996

>  <HBD>
1

>  <HBA>
8

>  <TPSA>
94,76

>  <RotBonds>
3

$$$$

  Mrv1925 04172511352D          

 28 31  0  0  0  0            999 V2000
    0.3752    5.1370    0.0000 C   0  0  0  0  0  0  0  0  0  0  0  0
    1.1877    4.9938    0.0000 N   0  0  0  0  0  0  0  0  0  0  0  0
    1.4698    4.2185    0.0000 C   0  0  0  0  0  0  0  0  0  0  0  0
    0.9395    3.5865    0.0000 O   0  0  0  0  0  0  0  0  0  0  0  0
    2.2823    4.0752    0.0000 C   0  0  0  0  0  0  0  0  0  0  0  0
    2.5645    3.3000    0.0000 C   0  0  0  0  0  0  0  0  0  0  0  0
    1.7520    3.1567    0.0000 O   0  0  0  0  0  0  0  0  0  0  0  0
    3.2789    3.7125    0.0000 C   0  0  0  0  0  0  0  0  0  0  0  0
    3.9934    3.3000    0.0000 C   0  0  0  0  0  0  0  0  0  0  0  0
    3.9934    2.4750    0.0000 C   0  0  0  0  0  0  0  0  0  0  0  0
    3.2789    2.0625    0.0000 N   0  0  0  0  0  0  0  0  0  0  0  0
    2.5645    2.4750    0.0000 C   0  0  0  0  0  0  0  0  0  0  0  0
    3.2789    1.2375    0.0000 C   0  0  0  0  0  0  0  0  0  0  0  0
    3.9934    0.8250    0.0000 N   0  0  0  0  0  0  0  0  0  0  0  0
    3.9934    0.0000    0.0000 C   0  0  0  0  0  0  0  0  0  0  0  0
    3.2789   -0.4125    0.0000 N   0  0  0  0  0  0  0  0  0  0  0  0
    2.5645    0.0000    0.0000 C   0  0  0  0  0  0  0  0  0  0  0  0
    2.5645    0.8250    0.0000 C   0  0  0  0  0  0  0  0  0  0  0  0
    1.7798    1.0799    0.0000 N   0  0  0  0  0  0  0  0  0  0  0  0
    1.2949    0.4125    0.0000 C   0  0  0  0  0  0  0  0  0  0  0  0
    1.7798   -0.2549    0.0000 N   0  0  0  0  0  0  0  0  0  0  0  0
    1.5249   -1.0396    0.0000 C   0  0  0  0  0  0  0  0  0  0  0  0
    2.0769   -1.6527    0.0000 C   0  0  0  0  0  0  0  0  0  0  0  0
    1.4638   -2.2047    0.0000 C   0  0  0  0  0  0  0  0  0  0  0  0
    1.6354   -3.0117    0.0000 O   0  0  0  0  0  0  0  0  0  0  0  0
    2.6900   -1.1006    0.0000 C   0  0  0  0  0  0  0  0  0  0  0  0
    3.2421   -1.7137    0.0000 O   0  0  0  0  0  0  0  0  0  0  0  0
    2.6290   -2.2657    0.0000 C   0  0  0  0  0  0  0  0  0  0  0  0
  1  2  1  0  0  0  0
  2  3  1  0  0  0  0
  3  4  2  0  0  0  0
  3  5  1  0  0  0  0
  5  6  1  0  0  0  0
  6  7  1  0  0  0  0
  6  8  1  0  0  0  0
  8  9  1  0  0  0  0
  9 10  1  0  0  0  0
 10 11  1  0  0  0  0
 11 12  1  0  0  0  0
  6 12  1  0  0  0  0
 11 13  1  0  0  0  0
 13 14  1  0  0  0  0
 14 15  2  0  0  0  0
 15 16  1  0  0  0  0
 16 17  2  0  0  0  0
 17 18  1  0  0  0  0
 13 18  2  0  0  0  0
 18 19  1  0  0  0  0
 19 20  2  0  0  0  0
 20 21  1  0  0  0  0
 17 21  1  0  0  0  0
 21 22  1  0  0  0  0
 22 23  1  0  0  0  0
 23 24  1  0  0  0  0
 24 25  1  0  0  0  0
 23 26  1  0  0  0  0
 26 27  1  0  0  0  0
 27 28  1  0  0  0  0
 23 28  1  0  0  0  0
M  END
>  <Catalog ID>
Z2760975982

>  <Plate_ID>
2026983-X50-02

>  <Well>
E09

>  <V, µL>
50

>  <Conc, mM>
10

>  <Formula>
C18H26N6O4

>  <MW>
390.4368

>  <Purity>
90.63

>  <PO>
5A-64168

>  <MW_salt>
0

>  <Stereochem.data>
Racemic or presumed racemic or meso

>  <Geometric.isomer>
None

>  <Chemical name>
2-[3-hydroxy-1-(9-{[3-(hydroxymethyl)oxetan-3-yl]methyl}-9H-purin-6-yl)piperidin-3-yl]-N-methylacetamide

>  <ClogP>
-2,753

>  <logS>
-1,987

>  <HBD>
3

>  <HBA>
8

>  <TPSA>
125,63

>  <RotBonds>
6

$$$$

  Mrv1925 04172511352D          

 28 31  0  0  0  0            999 V2000
    5.4223    5.7750    0.0000 C   0  0  0  0  0  0  0  0  0  0  0  0
    5.4223    4.9500    0.0000 C   0  0  0  0  0  0  0  0  0  0  0  0
    6.1368    4.5375    0.0000 O   0  0  0  0  0  0  0  0  0  0  0  0
    4.7079    4.5375    0.0000 N   0  0  0  0  0  0  0  0  0  0  0  0
    4.7079    3.7125    0.0000 C   0  0  0  0  0  0  0  0  0  0  0  0
    3.9934    3.3000    0.0000 C   0  0  0  0  0  0  0  0  0  0  0  0
    3.9934    2.4750    0.0000 C   0  0  0  0  0  0  0  0  0  0  0  0
    3.2789    2.0625    0.0000 N   0  0  0  0  0  0  0  0  0  0  0  0
    2.5645    2.4750    0.0000 C   0  0  0  0  0  0  0  0  0  0  0  0
    2.5645    3.3000    0.0000 C   0  0  0  0  0  0  0  0  0  0  0  0
    3.2789    3.7125    0.0000 O   0  0  0  0  0  0  0  0  0  0  0  0
    3.2789    1.2375    0.0000 C   0  0  0  0  0  0  0  0  0  0  0  0
    3.9934    0.8250    0.0000 N   0  0  0  0  0  0  0  0  0  0  0  0
    3.9934    0.0000    0.0000 C   0  0  0  0  0  0  0  0  0  0  0  0
    3.2789   -0.4125    0.0000 N   0  0  0  0  0  0  0  0  0  0  0  0
    2.5645    0.0000    0.0000 C   0  0  0  0  0  0  0  0  0  0  0  0
    2.5645    0.8250    0.0000 C   0  0  0  0  0  0  0  0  0  0  0  0
    1.7798    1.0799    0.0000 N   0  0  0  0  0  0  0  0  0  0  0  0
    1.2949    0.4125    0.0000 C   0  0  0  0  0  0  0  0  0  0  0  0
    1.7798   -0.2549    0.0000 N   0  0  0  0  0  0  0  0  0  0  0  0
    1.5249   -1.0396    0.0000 C   0  0  0  0  0  0  0  0  0  0  0  0
    2.0769   -1.6527    0.0000 C   0  0  0  0  0  0  0  0  0  0  0  0
    1.3773   -2.0898    0.0000 O   0  0  0  0  0  0  0  0  0  0  0  0
    2.5848   -1.0025    0.0000 C   0  0  0  0  0  0  0  0  0  0  0  0
    3.4018   -1.1174    0.0000 C   0  0  0  0  0  0  0  0  0  0  0  0
    3.7109   -1.8823    0.0000 O   0  0  0  0  0  0  0  0  0  0  0  0
    3.2030   -2.5324    0.0000 C   0  0  0  0  0  0  0  0  0  0  0  0
    2.3860   -2.4176    0.0000 C   0  0  0  0  0  0  0  0  0  0  0  0
  1  2  1  0  0  0  0
  2  3  2  0  0  0  0
  2  4  1  0  0  0  0
  4  5  1  0  0  0  0
  5  6  1  0  0  0  0
  6  7  1  0  0  0  0
  7  8  1  0  0  0  0
  8  9  1  0  0  0  0
  9 10  1  0  0  0  0
 10 11  1  0  0  0  0
  6 11  1  0  0  0  0
  8 12  1  0  0  0  0
 12 13  1  0  0  0  0
 13 14  2  0  0  0  0
 14 15  1  0  0  0  0
 15 16  2  0  0  0  0
 16 17  1  0  0  0  0
 12 17  2  0  0  0  0
 17 18  1  0  0  0  0
 18 19  2  0  0  0  0
 19 20  1  0  0  0  0
 16 20  1  0  0  0  0
 20 21  1  0  0  0  0
 21 22  1  0  0  0  0
 22 23  1  0  0  0  0
 22 24  1  0  0  0  0
 24 25  1  0  0  0  0
 25 26  1  0  0  0  0
 26 27  1  0  0  0  0
 27 28  1  0  0  0  0
 22 28  1  0  0  0  0
M  END
>  <Catalog ID>
Z2760948750

>  <Plate_ID>
2026983-X50-02

>  <Well>
F09

>  <V, µL>
50

>  <Conc, mM>
10

>  <Formula>
C18H26N6O4

>  <MW>
390.4368

>  <Purity>
97.2

>  <PO>
5A-64168

>  <MW_salt>
0

>  <Stereochem.data>
Racemic or presumed racemic or meso

>  <Geometric.isomer>
None

>  <Chemical name>
N-[(4-{9-[(4-hydroxyoxan-4-yl)methyl]-9H-purin-6-yl}morpholin-2-yl)methyl]acetamide

>  <ClogP>
-2,191

>  <logS>
-2,816

>  <HBD>
2

>  <HBA>
8

>  <TPSA>
114,63

>  <RotBonds>
5

$$$$

  Mrv1925 04172511352D          

 28 32  0  0  0  0            999 V2000
    0.2093   -3.7625    0.0000 C   0  0  0  0  0  0  0  0  0  0  0  0
   -0.5052   -3.3500    0.0000 O   0  0  0  0  0  0  0  0  0  0  0  0
   -0.5052   -2.5250    0.0000 C   0  0  0  0  0  0  0  0  0  0  0  0
   -1.0886   -1.9417    0.0000 C   0  0  0  0  0  0  0  0  0  0  0  0
   -0.5052   -1.3583    0.0000 C   0  0  0  0  0  0  0  0  0  0  0  0
   -0.5052   -0.5333    0.0000 N   0  0  0  0  0  0  0  0  0  0  0  0
    0.2093   -0.1208    0.0000 C   0  0  0  0  0  0  0  0  0  0  0  0
   -1.2197   -0.1208    0.0000 C   0  0  0  0  0  0  0  0  0  0  0  0
   -1.9341   -0.5333    0.0000 N   0  0  0  0  0  0  0  0  0  0  0  0
   -2.6486   -0.1208    0.0000 C   0  0  0  0  0  0  0  0  0  0  0  0
   -2.6486    0.7042    0.0000 N   0  0  0  0  0  0  0  0  0  0  0  0
   -1.9341    1.1167    0.0000 C   0  0  0  0  0  0  0  0  0  0  0  0
   -1.2197    0.7042    0.0000 C   0  0  0  0  0  0  0  0  0  0  0  0
   -0.6066    1.2562    0.0000 N   0  0  0  0  0  0  0  0  0  0  0  0
   -0.9421    2.0099    0.0000 C   0  0  0  0  0  0  0  0  0  0  0  0
   -1.7626    1.9237    0.0000 N   0  0  0  0  0  0  0  0  0  0  0  0
   -2.3147    2.5367    0.0000 C   0  0  0  0  0  0  0  0  0  0  0  0
   -3.1216    2.3652    0.0000 C   0  0  0  0  0  0  0  0  0  0  0  0
   -3.3766    1.5806    0.0000 O   0  0  0  0  0  0  0  0  0  0  0  0
   -3.6737    2.9783    0.0000 C   0  0  0  0  0  0  0  0  0  0  0  0
   -4.4941    2.8921    0.0000 C   0  0  0  0  0  0  0  0  0  0  0  0
   -4.8297    3.6458    0.0000 C   0  0  0  0  0  0  0  0  0  0  0  0
   -4.2166    4.1978    0.0000 C   0  0  0  0  0  0  0  0  0  0  0  0
   -3.5021    3.7853    0.0000 O   0  0  0  0  0  0  0  0  0  0  0  0
    0.0782   -1.9417    0.0000 C   0  0  0  0  0  0  0  0  0  0  0  0
    0.6615   -1.3583    0.0000 C   0  0  0  0  0  0  0  0  0  0  0  0
    1.2449   -1.9417    0.0000 C   0  0  0  0  0  0  0  0  0  0  0  0
    0.6615   -2.5250    0.0000 C   0  0  0  0  0  0  0  0  0  0  0  0
  1  2  1  0  0  0  0
  2  3  1  0  0  0  0
  3  4  1  0  0  0  0
  4  5  1  0  0  0  0
  5  6  1  0  0  0  0
  6  7  1  0  0  0  0
  6  8  1  0  0  0  0
  8  9  1  0  0  0  0
  9 10  2  0  0  0  0
 10 11  1  0  0  0  0
 11 12  2  0  0  0  0
 12 13  1  0  0  0  0
  8 13  2  0  0  0  0
 13 14  1  0  0  0  0
 14 15  2  0  0  0  0
 15 16  1  0  0  0  0
 12 16  1  0  0  0  0
 16 17  1  0  0  0  0
 17 18  1  0  0  0  0
 18 19  1  0  0  0  0
 18 20  1  0  0  0  0
 20 21  1  0  0  0  0
 21 22  1  0  0  0  0
 22 23  1  0  0  0  0
 23 24  1  0  0  0  0
 20 24  1  0  0  0  0
  5 25  1  0  0  0  0
  3 25  1  0  0  0  0
 25 26  1  0  0  0  0
 26 27  1  0  0  0  0
 27 28  1  0  0  0  0
 25 28  1  0  0  0  0
M  END
>  <Catalog ID>
Z2760970495

>  <Plate_ID>
2026983-X50-02

>  <Well>
G09

>  <V, µL>
50

>  <Conc, mM>
10

>  <Formula>
C20H29N5O3

>  <MW>
387.476

>  <Purity>
100

>  <PO>
5A-64168

>  <MW_salt>
0

>  <Stereochem.data>
Diastereomeric mixture

>  <Geometric.isomer>
None

>  <Chemical name>
2-[6-({3-methoxyspiro[3.3]heptan-1-yl}(methyl)amino)-9H-purin-9-yl]-1-(oxolan-2-yl)ethan-1-ol

>  <ClogP>
1,625

>  <logS>
-3,336

>  <HBD>
1

>  <HBA>
7

>  <TPSA>
85,53

>  <RotBonds>
6

$$$$

  Mrv1925 04172511352D          

 27 31  0  0  1  0            999 V2000
    2.1990    4.8311    0.0000 O   0  0  0  0  0  0  0  0  0  0  0  0
    2.6115    4.1167    0.0000 S   0  0  0  0  0  0  0  0  0  0  0  0
    1.8578    3.7811    0.0000 O   0  0  0  0  0  0  0  0  0  0  0  0
    3.2789    4.6016    0.0000 C   0  0  0  0  0  0  0  0  0  0  0  0
    3.9464    4.1167    0.0000 C   0  0  0  0  0  0  0  0  0  0  0  0
    3.6914    3.3320    0.0000 C   0  0  1  0  0  0  0  0  0  0  0  0
    3.9464    2.5474    0.0000 C   0  0  0  0  0  0  0  0  0  0  0  0
    3.2789    2.0625    0.0000 N   0  0  0  0  0  0  0  0  0  0  0  0
    2.6115    2.5474    0.0000 C   0  0  0  0  0  0  0  0  0  0  0  0
    2.8664    3.3320    0.0000 C   0  0  1  0  0  0  0  0  0  0  0  0
    3.2789    1.2375    0.0000 C   0  0  0  0  0  0  0  0  0  0  0  0
    3.9934    0.8250    0.0000 N   0  0  0  0  0  0  0  0  0  0  0  0
    3.9934    0.0000    0.0000 C   0  0  0  0  0  0  0  0  0  0  0  0
    3.2789   -0.4125    0.0000 N   0  0  0  0  0  0  0  0  0  0  0  0
    2.5645    0.0000    0.0000 C   0  0  0  0  0  0  0  0  0  0  0  0
    2.5645    0.8250    0.0000 C   0  0  0  0  0  0  0  0  0  0  0  0
    1.7798    1.0799    0.0000 N   0  0  0  0  0  0  0  0  0  0  0  0
    1.2949    0.4125    0.0000 C   0  0  0  0  0  0  0  0  0  0  0  0
    1.7798   -0.2549    0.0000 N   0  0  0  0  0  0  0  0  0  0  0  0
    1.5249   -1.0396    0.0000 C   0  0  0  0  0  0  0  0  0  0  0  0
    2.0769   -1.6527    0.0000 C   0  0  0  0  0  0  0  0  0  0  0  0
    2.8839   -1.4811    0.0000 O   0  0  0  0  0  0  0  0  0  0  0  0
    1.8220   -2.4373    0.0000 C   0  0  0  0  0  0  0  0  0  0  0  0
    2.3069   -3.1047    0.0000 C   0  0  0  0  0  0  0  0  0  0  0  0
    1.8220   -3.7722    0.0000 C   0  0  0  0  0  0  0  0  0  0  0  0
    1.0374   -3.5172    0.0000 C   0  0  0  0  0  0  0  0  0  0  0  0
    1.0374   -2.6922    0.0000 O   0  0  0  0  0  0  0  0  0  0  0  0
  1  2  2  0  0  0  0
  2  3  2  0  0  0  0
  2  4  1  0  0  0  0
  4  5  1  0  0  0  0
  6  5  1  1  0  0  0
  6  7  1  0  0  0  0
  7  8  1  0  0  0  0
  8  9  1  0  0  0  0
 10  9  1  1  0  0  0
  6 10  1  0  0  0  0
 10  2  1  0  0  0  0
  8 11  1  0  0  0  0
 11 12  1  0  0  0  0
 12 13  2  0  0  0  0
 13 14  1  0  0  0  0
 14 15  2  0  0  0  0
 15 16  1  0  0  0  0
 11 16  2  0  0  0  0
 16 17  1  0  0  0  0
 17 18  2  0  0  0  0
 18 19  1  0  0  0  0
 15 19  1  0  0  0  0
 19 20  1  0  0  0  0
 20 21  1  0  0  0  0
 21 22  1  0  0  0  0
 21 23  1  0  0  0  0
 23 24  1  0  0  0  0
 24 25  1  0  0  0  0
 25 26  1  0  0  0  0
 26 27  1  0  0  0  0
 23 27  1  0  0  0  0
M  END
>  <Catalog ID>
Z2760969094

>  <Plate_ID>
2026983-X50-02

>  <Well>
H09

>  <V, µL>
50

>  <Conc, mM>
10

>  <Formula>
C17H23N5O4S

>  <MW>
393.4606

>  <Purity>
100

>  <PO>
5A-64168

>  <MW_salt>
0

>  <Stereochem.data>
Diastereomeric mixture

>  <Geometric.isomer>
None

>  <Chemical name>
(3aS,6aS)-5-{9-[2-hydroxy-2-(oxolan-2-yl)ethyl]-9H-purin-6-yl}-hexahydro-2H-1lambda6-thieno[2,3-c]pyrrole-1,1-dione

>  <ClogP>
-1,565

>  <logS>
-2,787

>  <HBD>
1

>  <HBA>
8

>  <TPSA>
110,44

>  <RotBonds>
4

$$$$

  Mrv1925 04172511352D          

 31 33  0  0  0  0            999 V2000
    4.2868   -2.4750    0.0000 C   0  0  0  0  0  0  0  0  0  0  0  0
    3.5724   -2.8875    0.0000 C   0  0  0  0  0  0  0  0  0  0  0  0
    3.5724   -3.7125    0.0000 C   0  0  0  0  0  0  0  0  0  0  0  0
    2.8579   -4.1250    0.0000 N   0  0  0  0  0  0  0  0  0  0  0  0
    2.1434   -3.7125    0.0000 C   0  0  0  0  0  0  0  0  0  0  0  0
    1.4289   -4.1250    0.0000 O   0  0  0  0  0  0  0  0  0  0  0  0
    2.1434   -2.8875    0.0000 N   0  0  0  0  0  0  0  0  0  0  0  0
    1.4289   -2.4750    0.0000 C   0  0  0  0  0  0  0  0  0  0  0  0
    1.4289   -1.6500    0.0000 C   0  0  0  0  0  0  0  0  0  0  0  0
    2.1434   -1.2375    0.0000 O   0  0  0  0  0  0  0  0  0  0  0  0
    0.7145   -1.2375    0.0000 N   0  0  0  0  0  0  0  0  0  0  0  0
    0.7145   -0.4125    0.0000 C   0  0  0  0  0  0  0  0  0  0  0  0
    0.0000    0.0000    0.0000 C   0  0  0  0  0  0  0  0  0  0  0  0
    0.0000    0.8250    0.0000 C   0  0  0  0  0  0  0  0  0  0  0  0
    0.7145    1.2375    0.0000 C   0  0  0  0  0  0  0  0  0  0  0  0
    1.4289    0.8250    0.0000 C   0  0  0  0  0  0  0  0  0  0  0  0
    1.4289    0.0000    0.0000 C   0  0  0  0  0  0  0  0  0  0  0  0
    0.7145    2.0625    0.0000 C   0  0  0  0  0  0  0  0  0  0  0  0
    0.7145    2.8875    0.0000 C   0  0  0  0  0  0  0  0  0  0  0  0
   -0.1105    2.0625    0.0000 C   0  0  0  0  0  0  0  0  0  0  0  0
    1.5395    2.0625    0.0000 C   0  0  0  0  0  0  0  0  0  0  0  0
    2.8579   -2.4750    0.0000 C   0  0  0  0  0  0  0  0  0  0  0  0
    2.8579   -1.6500    0.0000 O   0  0  0  0  0  0  0  0  0  0  0  0
    2.8579   -4.9500    0.0000 C   0  0  0  0  0  0  0  0  0  0  0  0
    3.5253   -5.4349    0.0000 C   0  0  0  0  0  0  0  0  0  0  0  0
    3.2704   -6.2195    0.0000 C   0  0  0  0  0  0  0  0  0  0  0  0
    3.7553   -6.8870    0.0000 O   0  0  0  0  0  0  0  0  0  0  0  0
    2.4454   -6.2195    0.0000 C   0  0  0  0  0  0  0  0  0  0  0  0
    1.9605   -6.8870    0.0000 C   0  0  0  0  0  0  0  0  0  0  0  0
    2.2960   -7.6407    0.0000 O   0  0  0  0  0  0  0  0  0  0  0  0
    2.1904   -5.4349    0.0000 O   0  0  0  0  0  0  0  0  0  0  0  0
  1  2  1  0  0  0  0
  2  3  2  0  0  0  0
  3  4  1  0  0  0  0
  4  5  1  0  0  0  0
  5  6  2  0  0  0  0
  5  7  1  0  0  0  0
  7  8  1  0  0  0  0
  8  9  1  0  0  0  0
  9 10  2  0  0  0  0
  9 11  1  0  0  0  0
 11 12  1  0  0  0  0
 12 13  1  0  0  0  0
 13 14  2  0  0  0  0
 14 15  1  0  0  0  0
 15 16  2  0  0  0  0
 16 17  1  0  0  0  0
 12 17  2  0  0  0  0
 15 18  1  0  0  0  0
 18 19  1  0  0  0  0
 18 20  1  0  0  0  0
 18 21  1  0  0  0  0
  7 22  1  0  0  0  0
  2 22  1  0  0  0  0
 22 23  2  0  0  0  0
  4 24  1  0  0  0  0
 24 25  1  0  0  0  0
 25 26  1  0  0  0  0
 26 27  1  0  0  0  0
 26 28  1  0  0  0  0
 28 29  1  0  0  0  0
 29 30  1  0  0  0  0
 28 31  1  0  0  0  0
 24 31  1  0  0  0  0
M  END
>  <Catalog ID>
Z1544608209

>  <Plate_ID>
2026983-X50-02

>  <Well>
A10

>  <V, µL>
50

>  <Conc, mM>
10

>  <Formula>
C22H29N3O6

>  <MW>
431.4822

>  <Purity>
94.6

>  <PO>
5A-64168

>  <MW_salt>
0

>  <Stereochem.data>
Diastereomeric mixture

>  <Geometric.isomer>
None

>  <Chemical name>
N-(4-tert-butylphenyl)-2-{3-[4-hydroxy-5-(hydroxymethyl)oxolan-2-yl]-5-methyl-2,6-dioxo-1,2,3,6-tetrahydropyrimidin-1-yl}acetamide

>  <ClogP>
2,552

>  <logS>
-3,73

>  <HBD>
3

>  <HBA>
6

>  <TPSA>
119,41

>  <RotBonds>
6

$$$$

  Mrv1925 04172511352D          

 25 28  0  0  0  0            999 V2000
   -0.9037   -3.1848    0.0000 O   0  0  0  0  0  0  0  0  0  0  0  0
   -0.2118   -3.6342    0.0000 C   0  0  0  0  0  0  0  0  0  0  0  0
    0.5232   -3.2596    0.0000 C   0  0  0  0  0  0  0  0  0  0  0  0
    0.8978   -3.9947    0.0000 C   0  0  0  0  0  0  0  0  0  0  0  0
    1.7217   -4.0379    0.0000 O   0  0  0  0  0  0  0  0  0  0  0  0
    0.1487   -2.5245    0.0000 C   0  0  0  0  0  0  0  0  0  0  0  0
    0.8838   -2.1500    0.0000 C   0  0  0  0  0  0  0  0  0  0  0  0
    1.2583   -2.8851    0.0000 C   0  0  0  0  0  0  0  0  0  0  0  0
    1.1387   -1.3654    0.0000 N   0  0  0  0  0  0  0  0  0  0  0  0
    0.6538   -0.6979    0.0000 C   0  0  0  0  0  0  0  0  0  0  0  0
    1.1387   -0.0305    0.0000 N   0  0  0  0  0  0  0  0  0  0  0  0
    1.9233   -0.2854    0.0000 C   0  0  0  0  0  0  0  0  0  0  0  0
    2.6378    0.1271    0.0000 C   0  0  0  0  0  0  0  0  0  0  0  0
    3.3523   -0.2854    0.0000 N   0  0  0  0  0  0  0  0  0  0  0  0
    3.3523   -1.1104    0.0000 C   0  0  0  0  0  0  0  0  0  0  0  0
    2.6378   -1.5229    0.0000 N   0  0  0  0  0  0  0  0  0  0  0  0
    1.9233   -1.1104    0.0000 C   0  0  0  0  0  0  0  0  0  0  0  0
    2.6378    0.9521    0.0000 N   0  0  0  0  0  0  0  0  0  0  0  0
    2.0545    1.5354    0.0000 C   0  0  0  0  0  0  0  0  0  0  0  0
    2.6378    2.1188    0.0000 C   0  0  0  0  0  0  0  0  0  0  0  0
    2.0545    2.7021    0.0000 O   0  0  0  0  0  0  0  0  0  0  0  0
    3.2212    1.5354    0.0000 C   0  0  0  0  0  0  0  0  0  0  0  0
    3.2212    2.7021    0.0000 C   0  0  0  0  0  0  0  0  0  0  0  0
    3.0077    3.4990    0.0000 F   0  0  0  0  0  0  0  0  0  0  0  0
    4.0181    2.4886    0.0000 F   0  0  0  0  0  0  0  0  0  0  0  0
  1  2  1  0  0  0  0
  2  3  1  0  0  0  0
  3  4  1  0  0  0  0
  4  5  1  0  0  0  0
  3  6  1  0  0  0  0
  6  7  1  0  0  0  0
  7  8  1  0  0  0  0
  3  8  1  0  0  0  0
  7  9  1  0  0  0  0
  9 10  1  0  0  0  0
 10 11  2  0  0  0  0
 11 12  1  0  0  0  0
 12 13  1  0  0  0  0
 13 14  2  0  0  0  0
 14 15  1  0  0  0  0
 15 16  2  0  0  0  0
 16 17  1  0  0  0  0
 12 17  2  0  0  0  0
  9 17  1  0  0  0  0
 13 18  1  0  0  0  0
 18 19  1  0  0  0  0
 19 20  1  0  0  0  0
 20 21  1  0  0  0  0
 20 22  1  0  0  0  0
 18 22  1  0  0  0  0
 20 23  1  0  0  0  0
 23 24  1  0  0  0  0
 23 25  1  0  0  0  0
M  END
>  <Catalog ID>
Z2760976264

>  <Plate_ID>
2026983-X50-02

>  <Well>
B10

>  <V, µL>
50

>  <Conc, mM>
10

>  <Formula>
C15H19F2N5O3

>  <MW>
355.3399

>  <Purity>
100

>  <PO>
5A-64168

>  <MW_salt>
0

>  <Stereochem.data>
Achiral

>  <Geometric.isomer>
None

>  <Chemical name>
1-{9-[3,3-bis(hydroxymethyl)cyclobutyl]-9H-purin-6-yl}-3-(difluoromethyl)azetidin-3-ol

>  <ClogP>
-1,343

>  <logS>
-1,802

>  <HBD>
3

>  <HBA>
7

>  <TPSA>
107,53

>  <RotBonds>
5

$$$$

  Mrv1925 04172511352D          

 26 30  0  0  0  0            999 V2000
    1.8269    2.2925    0.0000 C   0  0  0  0  0  0  0  0  0  0  0  0
    2.6115    2.5474    0.0000 C   0  0  0  0  0  0  0  0  0  0  0  0
    2.8664    3.3320    0.0000 C   0  0  0  0  0  0  0  0  0  0  0  0
    3.6914    3.3320    0.0000 C   0  0  0  0  0  0  0  0  0  0  0  0
    4.2435    3.9451    0.0000 C   0  0  0  0  0  0  0  0  0  0  0  0
    5.0504    3.7736    0.0000 C   0  0  0  0  0  0  0  0  0  0  0  0
    5.3054    2.9890    0.0000 C   0  0  0  0  0  0  0  0  0  0  0  0
    4.7533    2.3759    0.0000 C   0  0  0  0  0  0  0  0  0  0  0  0
    3.9464    2.5474    0.0000 C   0  0  0  0  0  0  0  0  0  0  0  0
    3.2789    2.0625    0.0000 N   0  0  0  0  0  0  0  0  0  0  0  0
    3.2789    1.2375    0.0000 C   0  0  0  0  0  0  0  0  0  0  0  0
    3.9934    0.8250    0.0000 N   0  0  0  0  0  0  0  0  0  0  0  0
    3.9934    0.0000    0.0000 C   0  0  0  0  0  0  0  0  0  0  0  0
    3.2789   -0.4125    0.0000 N   0  0  0  0  0  0  0  0  0  0  0  0
    2.5645    0.0000    0.0000 C   0  0  0  0  0  0  0  0  0  0  0  0
    2.5645    0.8250    0.0000 C   0  0  0  0  0  0  0  0  0  0  0  0
    1.7798    1.0799    0.0000 N   0  0  0  0  0  0  0  0  0  0  0  0
    1.2949    0.4125    0.0000 C   0  0  0  0  0  0  0  0  0  0  0  0
    1.7798   -0.2549    0.0000 N   0  0  0  0  0  0  0  0  0  0  0  0
    1.5249   -1.0396    0.0000 C   0  0  0  0  0  0  0  0  0  0  0  0
    2.0769   -1.6527    0.0000 C   0  0  0  0  0  0  0  0  0  0  0  0
    1.4095   -2.1376    0.0000 O   0  0  0  0  0  0  0  0  0  0  0  0
    2.6290   -1.0396    0.0000 C   0  0  0  0  0  0  0  0  0  0  0  0
    3.3826   -1.3751    0.0000 C   0  0  0  0  0  0  0  0  0  0  0  0
    3.2964   -2.1956    0.0000 O   0  0  0  0  0  0  0  0  0  0  0  0
    2.4894   -2.3671    0.0000 C   0  0  0  0  0  0  0  0  0  0  0  0
  1  2  1  0  0  0  0
  2  3  1  0  0  0  0
  3  4  1  0  0  0  0
  4  5  1  0  0  0  0
  5  6  1  0  0  0  0
  6  7  1  0  0  0  0
  7  8  1  0  0  0  0
  8  9  1  0  0  0  0
  4  9  1  0  0  0  0
  9 10  1  0  0  0  0
  2 10  1  0  0  0  0
 10 11  1  0  0  0  0
 11 12  1  0  0  0  0
 12 13  2  0  0  0  0
 13 14  1  0  0  0  0
 14 15  2  0  0  0  0
 15 16  1  0  0  0  0
 11 16  2  0  0  0  0
 16 17  1  0  0  0  0
 17 18  2  0  0  0  0
 18 19  1  0  0  0  0
 15 19  1  0  0  0  0
 19 20  1  0  0  0  0
 20 21  1  0  0  0  0
 21 22  1  0  0  0  0
 21 23  1  0  0  0  0
 23 24  1  0  0  0  0
 24 25  1  0  0  0  0
 25 26  1  0  0  0  0
 21 26  1  0  0  0  0
M  END
>  <Catalog ID>
Z2760949355

>  <Plate_ID>
2026983-X50-02

>  <Well>
C10

>  <V, µL>
50

>  <Conc, mM>
10

>  <Formula>
C19H27N5O2

>  <MW>
357.45

>  <Purity>
97.27

>  <PO>
5A-64168

>  <MW_salt>
0

>  <Stereochem.data>
Diastereomeric mixture

>  <Geometric.isomer>
None

>  <Chemical name>
3-{[6-(2-methyl-octahydro-1H-indol-1-yl)-9H-purin-9-yl]methyl}oxolan-3-ol

>  <ClogP>
1,69

>  <logS>
-4,194

>  <HBD>
1

>  <HBA>
6

>  <TPSA>
76,3

>  <RotBonds>
3

$$$$

  Mrv1925 04172511352D          

 30 34  0  0  0  0            999 V2000
   -0.7145   -1.2375    0.0000 C   0  0  0  0  0  0  0  0  0  0  0  0
    0.0000   -1.6500    0.0000 O   0  0  0  0  0  0  0  0  0  0  0  0
    0.7145   -1.2375    0.0000 C   0  0  0  0  0  0  0  0  0  0  0  0
    0.7145   -0.4125    0.0000 C   0  0  0  0  0  0  0  0  0  0  0  0
    1.4289    0.0000    0.0000 C   0  0  0  0  0  0  0  0  0  0  0  0
    2.1434   -0.4125    0.0000 C   0  0  0  0  0  0  0  0  0  0  0  0
    2.8579    0.0000    0.0000 O   0  0  0  0  0  0  0  0  0  0  0  0
    3.5724   -0.4125    0.0000 C   0  0  0  0  0  0  0  0  0  0  0  0
    3.5724   -1.2375    0.0000 C   0  0  0  0  0  0  0  0  0  0  0  0
    2.8579   -1.6500    0.0000 N   0  0  0  0  0  0  0  0  0  0  0  0
    2.8579   -2.4750    0.0000 C   0  0  0  0  0  0  0  0  0  0  0  0
    3.5724   -2.8875    0.0000 N   0  0  0  0  0  0  0  0  0  0  0  0
    3.5724   -3.7125    0.0000 C   0  0  0  0  0  0  0  0  0  0  0  0
    2.8579   -4.1250    0.0000 N   0  0  0  0  0  0  0  0  0  0  0  0
    2.1434   -3.7125    0.0000 C   0  0  0  0  0  0  0  0  0  0  0  0
    2.1434   -2.8875    0.0000 C   0  0  0  0  0  0  0  0  0  0  0  0
    1.3588   -2.6326    0.0000 N   0  0  0  0  0  0  0  0  0  0  0  0
    0.8739   -3.3000    0.0000 C   0  0  0  0  0  0  0  0  0  0  0  0
    1.3588   -3.9674    0.0000 N   0  0  0  0  0  0  0  0  0  0  0  0
    1.1039   -4.7521    0.0000 C   0  0  0  0  0  0  0  0  0  0  0  0
    1.6559   -5.3652    0.0000 C   0  0  0  0  0  0  0  0  0  0  0  0
    0.9562   -5.8023    0.0000 C   0  0  0  0  0  0  0  0  0  0  0  0
    0.9850   -6.6268    0.0000 O   0  0  0  0  0  0  0  0  0  0  0  0
    2.1638   -4.7150    0.0000 C   0  0  0  0  0  0  0  0  0  0  0  0
    2.9808   -4.8299    0.0000 C   0  0  0  0  0  0  0  0  0  0  0  0
    3.2898   -5.5948    0.0000 O   0  0  0  0  0  0  0  0  0  0  0  0
    2.7819   -6.2449    0.0000 C   0  0  0  0  0  0  0  0  0  0  0  0
    1.9649   -6.1301    0.0000 C   0  0  0  0  0  0  0  0  0  0  0  0
    2.1434   -1.2375    0.0000 C   0  0  0  0  0  0  0  0  0  0  0  0
    1.4289   -1.6500    0.0000 C   0  0  0  0  0  0  0  0  0  0  0  0
  1  2  1  0  0  0  0
  2  3  1  0  0  0  0
  3  4  1  0  0  0  0
  4  5  1  0  0  0  0
  5  6  1  0  0  0  0
  6  7  1  0  0  0  0
  7  8  1  0  0  0  0
  8  9  1  0  0  0  0
  9 10  1  0  0  0  0
 10 11  1  0  0  0  0
 11 12  1  0  0  0  0
 12 13  2  0  0  0  0
 13 14  1  0  0  0  0
 14 15  2  0  0  0  0
 15 16  1  0  0  0  0
 11 16  2  0  0  0  0
 16 17  1  0  0  0  0
 17 18  2  0  0  0  0
 18 19  1  0  0  0  0
 15 19  1  0  0  0  0
 19 20  1  0  0  0  0
 20 21  1  0  0  0  0
 21 22  1  0  0  0  0
 22 23  1  0  0  0  0
 21 24  1  0  0  0  0
 24 25  1  0  0  0  0
 25 26  1  0  0  0  0
 26 27  1  0  0  0  0
 27 28  1  0  0  0  0
 21 28  1  0  0  0  0
 10 29  1  0  0  0  0
  6 29  1  0  0  0  0
 29 30  1  0  0  0  0
  3 30  1  0  0  0  0
M  END
>  <Catalog ID>
Z2760956898

>  <Plate_ID>
2026983-X50-02

>  <Well>
D10

>  <V, µL>
50

>  <Conc, mM>
10

>  <Formula>
C21H31N5O4

>  <MW>
417.5019

>  <Purity>
100

>  <PO>
5A-64168

>  <MW_salt>
0

>  <Stereochem.data>
Diastereomeric mixture

>  <Geometric.isomer>
None

>  <Chemical name>
(4-{[6-(6-methoxy-octahydro-2H-1,4-benzoxazin-4-yl)-9H-purin-9-yl]methyl}oxan-4-yl)methanol

>  <ClogP>
-0,973

>  <logS>
-2,476

>  <HBD>
1

>  <HBA>
8

>  <TPSA>
94,76

>  <RotBonds>
5

$$$$

  Mrv1925 04172511352D          

 30 34  0  0  0  0            999 V2000
    2.7948   -3.2047    0.0000 O   0  0  0  0  0  0  0  0  0  0  0  0
    2.2428   -2.5916    0.0000 C   0  0  0  0  0  0  0  0  0  0  0  0
    1.4358   -2.7631    0.0000 C   0  0  0  0  0  0  0  0  0  0  0  0
    0.8838   -2.1500    0.0000 C   0  0  0  0  0  0  0  0  0  0  0  0
    1.1387   -1.3654    0.0000 N   0  0  0  0  0  0  0  0  0  0  0  0
    0.6538   -0.6979    0.0000 C   0  0  0  0  0  0  0  0  0  0  0  0
    1.1387   -0.0305    0.0000 N   0  0  0  0  0  0  0  0  0  0  0  0
    1.9233   -0.2854    0.0000 C   0  0  0  0  0  0  0  0  0  0  0  0
    2.6378    0.1271    0.0000 C   0  0  0  0  0  0  0  0  0  0  0  0
    3.3523   -0.2854    0.0000 N   0  0  0  0  0  0  0  0  0  0  0  0
    3.3523   -1.1104    0.0000 C   0  0  0  0  0  0  0  0  0  0  0  0
    2.6378   -1.5229    0.0000 N   0  0  0  0  0  0  0  0  0  0  0  0
    1.9233   -1.1104    0.0000 C   0  0  0  0  0  0  0  0  0  0  0  0
    2.6378    0.9521    0.0000 N   0  0  0  0  0  0  0  0  0  0  0  0
    1.9233    1.3646    0.0000 C   0  0  0  0  0  0  0  0  0  0  0  0
    1.9233    2.1896    0.0000 C   0  0  0  0  0  0  0  0  0  0  0  0
    2.6378    2.6021    0.0000 C   0  0  0  0  0  0  0  0  0  0  0  0
    3.3523    2.1896    0.0000 C   0  0  0  0  0  0  0  0  0  0  0  0
    3.3523    1.3646    0.0000 C   0  0  0  0  0  0  0  0  0  0  0  0
    4.0668    0.9521    0.0000 C   0  0  0  0  0  0  0  0  0  0  0  0
    4.1530    0.1316    0.0000 C   0  0  0  0  0  0  0  0  0  0  0  0
    4.9600   -0.0400    0.0000 C   0  0  0  0  0  0  0  0  0  0  0  0
    5.3725    0.6745    0.0000 C   0  0  0  0  0  0  0  0  0  0  0  0
    4.8204    1.2876    0.0000 C   0  0  0  0  0  0  0  0  0  0  0  0
    4.9920    2.0946    0.0000 O   0  0  0  0  0  0  0  0  0  0  0  0
    1.1809   -3.5477    0.0000 C   0  0  0  0  0  0  0  0  0  0  0  0
    0.3963   -3.8027    0.0000 C   0  0  0  0  0  0  0  0  0  0  0  0
    0.3963   -4.6277    0.0000 C   0  0  0  0  0  0  0  0  0  0  0  0
    1.1809   -4.8826    0.0000 O   0  0  0  0  0  0  0  0  0  0  0  0
    1.6658   -4.2152    0.0000 C   0  0  0  0  0  0  0  0  0  0  0  0
  1  2  1  0  0  0  0
  2  3  1  0  0  0  0
  3  4  1  0  0  0  0
  4  5  1  0  0  0  0
  5  6  1  0  0  0  0
  6  7  2  0  0  0  0
  7  8  1  0  0  0  0
  8  9  2  0  0  0  0
  9 10  1  0  0  0  0
 10 11  2  0  0  0  0
 11 12  1  0  0  0  0
 12 13  2  0  0  0  0
  8 13  1  0  0  0  0
  5 13  1  0  0  0  0
  9 14  1  0  0  0  0
 14 15  1  0  0  0  0
 15 16  1  0  0  0  0
 16 17  1  0  0  0  0
 17 18  1  0  0  0  0
 18 19  1  0  0  0  0
 14 19  1  0  0  0  0
 19 20  1  0  0  0  0
 20 21  1  0  0  0  0
 21 22  1  0  0  0  0
 22 23  1  0  0  0  0
 23 24  1  0  0  0  0
 20 24  1  0  0  0  0
 24 25  1  0  0  0  0
  3 26  1  0  0  0  0
 26 27  1  0  0  0  0
 27 28  1  0  0  0  0
 28 29  1  0  0  0  0
 29 30  1  0  0  0  0
 26 30  1  0  0  0  0
M  END
>  <Catalog ID>
Z2760971074

>  <Plate_ID>
2026983-X50-02

>  <Well>
E10

>  <V, µL>
50

>  <Conc, mM>
10

>  <Formula>
C22H33N5O3

>  <MW>
415.5291

>  <Purity>
100

>  <PO>
5A-64168

>  <MW_salt>
0

>  <Stereochem.data>
Diastereomeric mixture

>  <Geometric.isomer>
None

>  <Chemical name>
2-(1-{9-[3-hydroxy-2-(oxolan-3-yl)propyl]-9H-purin-6-yl}piperidin-2-yl)cyclopentan-1-ol

>  <ClogP>
0,232

>  <logS>
-3,24

>  <HBD>
2

>  <HBA>
7

>  <TPSA>
96,53

>  <RotBonds>
6

$$$$

  Mrv1925 04172511352D          

 27 31  0  0  0  0            999 V2000
    1.8841   -3.2412    0.0000 O   0  0  0  0  0  0  0  0  0  0  0  0
    1.0717   -3.3845    0.0000 C   0  0  0  0  0  0  0  0  0  0  0  0
    0.7895   -4.1597    0.0000 C   0  0  0  0  0  0  0  0  0  0  0  0
    0.0750   -3.7472    0.0000 C   0  0  0  0  0  0  0  0  0  0  0  0
    0.0750   -2.9222    0.0000 N   0  0  0  0  0  0  0  0  0  0  0  0
   -0.5924   -2.4373    0.0000 C   0  0  0  0  0  0  0  0  0  0  0  0
   -0.3375   -1.6527    0.0000 N   0  0  0  0  0  0  0  0  0  0  0  0
    0.4875   -1.6527    0.0000 C   0  0  0  0  0  0  0  0  0  0  0  0
    1.0396   -1.0396    0.0000 C   0  0  0  0  0  0  0  0  0  0  0  0
    1.8465   -1.2111    0.0000 N   0  0  0  0  0  0  0  0  0  0  0  0
    2.1015   -1.9957    0.0000 C   0  0  0  0  0  0  0  0  0  0  0  0
    1.5494   -2.6088    0.0000 N   0  0  0  0  0  0  0  0  0  0  0  0
    0.7425   -2.4373    0.0000 C   0  0  0  0  0  0  0  0  0  0  0  0
    0.7846   -0.2549    0.0000 N   0  0  0  0  0  0  0  0  0  0  0  0
    0.0000   -0.0000    0.0000 C   0  0  0  0  0  0  0  0  0  0  0  0
   -0.0000    0.8250    0.0000 C   0  0  0  0  0  0  0  0  0  0  0  0
    0.7846    1.0799    0.0000 C   0  0  0  0  0  0  0  0  0  0  0  0
    1.2695    0.4125    0.0000 C   0  0  0  0  0  0  0  0  0  0  0  0
    1.7545    1.0799    0.0000 C   0  0  0  0  0  0  0  0  0  0  0  0
    2.5391    0.8250    0.0000 C   0  0  0  0  0  0  0  0  0  0  0  0
    2.5391   -0.0000    0.0000 O   0  0  0  0  0  0  0  0  0  0  0  0
    1.7545   -0.2549    0.0000 C   0  0  0  0  0  0  0  0  0  0  0  0
    1.6020   -4.3030    0.0000 C   0  0  0  0  0  0  0  0  0  0  0  0
    1.8841   -5.0782    0.0000 C   0  0  0  0  0  0  0  0  0  0  0  0
    1.3538   -5.7102    0.0000 O   0  0  0  0  0  0  0  0  0  0  0  0
    0.5414   -5.5669    0.0000 C   0  0  0  0  0  0  0  0  0  0  0  0
    0.2592   -4.7917    0.0000 C   0  0  0  0  0  0  0  0  0  0  0  0
  1  2  1  0  0  0  0
  2  3  1  0  0  0  0
  3  4  1  0  0  0  0
  4  5  1  0  0  0  0
  5  6  1  0  0  0  0
  6  7  2  0  0  0  0
  7  8  1  0  0  0  0
  8  9  2  0  0  0  0
  9 10  1  0  0  0  0
 10 11  2  0  0  0  0
 11 12  1  0  0  0  0
 12 13  2  0  0  0  0
  8 13  1  0  0  0  0
  5 13  1  0  0  0  0
  9 14  1  0  0  0  0
 14 15  1  0  0  0  0
 15 16  1  0  0  0  0
 16 17  1  0  0  0  0
 17 18  1  0  0  0  0
 14 18  1  0  0  0  0
 18 19  1  0  0  0  0
 19 20  1  0  0  0  0
 20 21  1  0  0  0  0
 21 22  1  0  0  0  0
 18 22  1  0  0  0  0
  3 23  1  0  0  0  0
 23 24  1  0  0  0  0
 24 25  1  0  0  0  0
 25 26  1  0  0  0  0
 26 27  1  0  0  0  0
  3 27  1  0  0  0  0
M  END
>  <Catalog ID>
Z2760969724

>  <Plate_ID>
2026983-X50-02

>  <Well>
F10

>  <V, µL>
50

>  <Conc, mM>
10

>  <Formula>
C19H27N5O3

>  <MW>
373.4494

>  <Purity>
96.99

>  <PO>
5A-64168

>  <MW_salt>
0

>  <Stereochem.data>
Racemic or presumed racemic or meso

>  <Geometric.isomer>
None

>  <Chemical name>
{4-[(6-{7-oxa-1-azaspiro[4.4]nonan-1-yl}-9H-purin-9-yl)methyl]oxan-4-yl}methanol

>  <ClogP>
-0,539

>  <logS>
-2,188

>  <HBD>
1

>  <HBA>
7

>  <TPSA>
85,53

>  <RotBonds>
4

$$$$

  Mrv1925 04172511352D          

 23 25  0  0  0  0            999 V2000
   -2.8579   -5.7750    0.0000 N   0  0  0  0  0  0  0  0  0  0  0  0
   -2.1434   -5.3625    0.0000 C   0  0  0  0  0  0  0  0  0  0  0  0
   -1.4289   -4.9500    0.0000 C   0  0  0  0  0  0  0  0  0  0  0  0
   -1.4289   -4.1250    0.0000 C   0  0  0  0  0  0  0  0  0  0  0  0
   -0.7145   -3.7125    0.0000 N   0  0  0  0  0  0  0  0  0  0  0  0
   -0.7145   -2.8875    0.0000 C   0  0  0  0  0  0  0  0  0  0  0  0
    0.0000   -2.4750    0.0000 C   0  0  0  0  0  0  0  0  0  0  0  0
    0.0000   -1.6500    0.0000 C   0  0  0  0  0  0  0  0  0  0  0  0
    0.7145   -1.2375    0.0000 N   0  0  0  0  0  0  0  0  0  0  0  0
    0.7145   -0.4125    0.0000 C   0  0  0  0  0  0  0  0  0  0  0  0
    1.4289    0.0000    0.0000 C   0  0  0  0  0  0  0  0  0  0  0  0
    2.1434   -0.4125    0.0000 C   0  0  0  0  0  0  0  0  0  0  0  0
    2.8579    0.0000    0.0000 C   0  0  0  0  0  0  0  0  0  0  0  0
    3.5724   -0.4125    0.0000 C   0  0  0  0  0  0  0  0  0  0  0  0
    3.5724   -1.2375    0.0000 C   0  0  0  0  0  0  0  0  0  0  0  0
    2.8579   -1.6500    0.0000 C   0  0  0  0  0  0  0  0  0  0  0  0
    2.1434   -1.2375    0.0000 C   0  0  0  0  0  0  0  0  0  0  0  0
    1.4289   -1.6500    0.0000 C   0  0  0  0  0  0  0  0  0  0  0  0
    0.0000   -4.1250    0.0000 C   0  0  0  0  0  0  0  0  0  0  0  0
    0.7145   -3.7125    0.0000 O   0  0  0  0  0  0  0  0  0  0  0  0
    0.0000   -4.9500    0.0000 N   0  0  0  0  0  0  0  0  0  0  0  0
   -0.7145   -5.3625    0.0000 C   0  0  0  0  0  0  0  0  0  0  0  0
   -0.7145   -6.1875    0.0000 O   0  0  0  0  0  0  0  0  0  0  0  0
  1  2  3  0  0  0  0
  2  3  1  0  0  0  0
  3  4  2  0  0  0  0
  4  5  1  0  0  0  0
  5  6  1  0  0  0  0
  6  7  1  0  0  0  0
  7  8  1  0  0  0  0
  8  9  1  0  0  0  0
  9 10  1  0  0  0  0
 10 11  1  0  0  0  0
 11 12  1  0  0  0  0
 12 13  1  0  0  0  0
 13 14  2  0  0  0  0
 14 15  1  0  0  0  0
 15 16  2  0  0  0  0
 16 17  1  0  0  0  0
 12 17  2  0  0  0  0
 17 18  1  0  0  0  0
  9 18  1  0  0  0  0
  5 19  1  0  0  0  0
 19 20  2  0  0  0  0
 19 21  1  0  0  0  0
 21 22  1  0  0  0  0
  3 22  1  0  0  0  0
 22 23  2  0  0  0  0
M  END
>  <Catalog ID>
Z666561866

>  <Plate_ID>
2026983-X50-02

>  <Well>
G10

>  <V, µL>
50

>  <Conc, mM>
10

>  <Formula>
C17H18N4O2

>  <MW>
310.3504

>  <Purity>
100

>  <PO>
5A-64168

>  <MW_salt>
0

>  <Stereochem.data>
Achiral

>  <Geometric.isomer>
None

>  <Chemical name>
2,4-dioxo-1-[3-(1,2,3,4-tetrahydroisoquinolin-2-yl)propyl]-1,2,3,4-tetrahydropyrimidine-5-carbonitrile

>  <ClogP>
1,388

>  <logS>
-2,25

>  <HBD>
1

>  <HBA>
4

>  <TPSA>
76,44

>  <RotBonds>
4

$$$$

  Mrv1925 04172511352D          

 20 21  0  0  0  0            999 V2000
    2.1434   -1.2375    0.0000 C   0  0  0  0  0  0  0  0  0  0  0  0
    1.4289   -1.6500    0.0000 C   0  0  0  0  0  0  0  0  0  0  0  0
    1.4289   -2.4750    0.0000 N   0  0  0  0  0  0  0  0  0  0  0  0
    2.1434   -2.8875    0.0000 C   0  0  0  0  0  0  0  0  0  0  0  0
    2.1434   -3.7125    0.0000 C   0  0  0  0  0  0  0  0  0  0  0  0
    2.8579   -4.1250    0.0000 C   0  0  0  0  0  0  0  0  0  0  0  0
    3.5724   -4.5375    0.0000 N   0  0  0  0  0  0  0  0  0  0  0  0
    1.4289   -4.1250    0.0000 C   0  0  0  0  0  0  0  0  0  0  0  0
    1.4289   -4.9500    0.0000 O   0  0  0  0  0  0  0  0  0  0  0  0
    0.7145   -3.7125    0.0000 N   0  0  0  0  0  0  0  0  0  0  0  0
    0.0000   -4.1250    0.0000 C   0  0  0  0  0  0  0  0  0  0  0  0
    0.0000   -4.9500    0.0000 C   0  0  0  0  0  0  0  0  0  0  0  0
   -0.7145   -5.3625    0.0000 C   0  0  0  0  0  0  0  0  0  0  0  0
   -0.7145   -6.1875    0.0000 C   0  0  0  0  0  0  0  0  0  0  0  0
   -1.4289   -6.6000    0.0000 C   0  0  0  0  0  0  0  0  0  0  0  0
   -2.1434   -6.1875    0.0000 N   0  0  0  0  0  0  0  0  0  0  0  0
   -2.1434   -5.3625    0.0000 C   0  0  0  0  0  0  0  0  0  0  0  0
   -1.4289   -4.9500    0.0000 C   0  0  0  0  0  0  0  0  0  0  0  0
    0.7145   -2.8875    0.0000 C   0  0  0  0  0  0  0  0  0  0  0  0
    0.0000   -2.4750    0.0000 O   0  0  0  0  0  0  0  0  0  0  0  0
  1  2  1  0  0  0  0
  2  3  1  0  0  0  0
  3  4  1  0  0  0  0
  4  5  2  0  0  0  0
  5  6  1  0  0  0  0
  6  7  3  0  0  0  0
  5  8  1  0  0  0  0
  8  9  2  0  0  0  0
  8 10  1  0  0  0  0
 10 11  1  0  0  0  0
 11 12  1  0  0  0  0
 12 13  1  0  0  0  0
 13 14  1  0  0  0  0
 14 15  2  0  0  0  0
 15 16  1  0  0  0  0
 16 17  2  0  0  0  0
 17 18  1  0  0  0  0
 13 18  2  0  0  0  0
 10 19  1  0  0  0  0
  3 19  1  0  0  0  0
 19 20  2  0  0  0  0
M  END
>  <Catalog ID>
Z226861792

>  <Plate_ID>
2026983-X50-02

>  <Well>
H10

>  <V, µL>
50

>  <Conc, mM>
10

>  <Formula>
C14H14N4O2

>  <MW>
270.2866

>  <Purity>
100

>  <PO>
5A-64168

>  <MW_salt>
0

>  <Stereochem.data>
Achiral

>  <Geometric.isomer>
None

>  <Chemical name>
1-ethyl-2,4-dioxo-3-[2-(pyridin-4-yl)ethyl]-1,2,3,4-tetrahydropyrimidine-5-carbonitrile

>  <ClogP>
0,798

>  <logS>
-1,24

>  <HBD>
0

>  <HBA>
4

>  <TPSA>
77,3

>  <RotBonds>
4

$$$$

  Mrv1925 04172511352D          

 25 27  0  0  0  0            999 V2000
   -2.6633    2.6869    0.0000 C   0  0  0  0  0  0  0  0  0  0  0  0
   -1.9096    3.0225    0.0000 C   0  0  0  0  0  0  0  0  0  0  0  0
   -1.6547    2.2378    0.0000 C   0  0  0  0  0  0  0  0  0  0  0  0
   -2.3221    3.7369    0.0000 N   0  0  0  0  0  0  0  0  0  0  0  0
   -1.7701    4.3500    0.0000 C   0  0  0  0  0  0  0  0  0  0  0  0
   -1.9416    5.1570    0.0000 O   0  0  0  0  0  0  0  0  0  0  0  0
   -1.0164    4.0145    0.0000 N   0  0  0  0  0  0  0  0  0  0  0  0
   -0.3020    4.4270    0.0000 C   0  0  0  0  0  0  0  0  0  0  0  0
    0.4125    4.0145    0.0000 C   0  0  0  0  0  0  0  0  0  0  0  0
    1.1270    4.4270    0.0000 C   0  0  0  0  0  0  0  0  0  0  0  0
    1.8414    4.0145    0.0000 N   0  0  0  0  0  0  0  0  0  0  0  0
    2.5559    4.4270    0.0000 C   0  0  0  0  0  0  0  0  0  0  0  0
    2.5559    5.2520    0.0000 O   0  0  0  0  0  0  0  0  0  0  0  0
    3.2704    4.0145    0.0000 C   0  0  0  0  0  0  0  0  0  0  0  0
    3.9849    4.4270    0.0000 C   0  0  0  0  0  0  0  0  0  0  0  0
    4.6993    4.8395    0.0000 N   0  0  0  0  0  0  0  0  0  0  0  0
    3.2704    3.1895    0.0000 C   0  0  0  0  0  0  0  0  0  0  0  0
    2.5559    2.7770    0.0000 N   0  0  0  0  0  0  0  0  0  0  0  0
    1.8414    3.1895    0.0000 C   0  0  0  0  0  0  0  0  0  0  0  0
    1.1270    2.7770    0.0000 O   0  0  0  0  0  0  0  0  0  0  0  0
    2.5559    1.9520    0.0000 C   0  0  0  0  0  0  0  0  0  0  0  0
    2.9684    1.2375    0.0000 C   0  0  0  0  0  0  0  0  0  0  0  0
    2.1434    1.2375    0.0000 C   0  0  0  0  0  0  0  0  0  0  0  0
   -1.1027    3.1940    0.0000 C   0  0  0  0  0  0  0  0  0  0  0  0
   -0.4896    2.6420    0.0000 O   0  0  0  0  0  0  0  0  0  0  0  0
  1  2  1  0  0  0  0
  2  3  1  0  0  0  0
  2  4  1  0  0  0  0
  4  5  1  0  0  0  0
  5  6  2  0  0  0  0
  5  7  1  0  0  0  0
  7  8  1  0  0  0  0
  8  9  1  0  0  0  0
  9 10  1  0  0  0  0
 10 11  1  0  0  0  0
 11 12  1  0  0  0  0
 12 13  2  0  0  0  0
 12 14  1  0  0  0  0
 14 15  1  0  0  0  0
 15 16  3  0  0  0  0
 14 17  2  0  0  0  0
 17 18  1  0  0  0  0
 18 19  1  0  0  0  0
 11 19  1  0  0  0  0
 19 20  2  0  0  0  0
 18 21  1  0  0  0  0
 21 22  1  0  0  0  0
 22 23  1  0  0  0  0
 21 23  1  0  0  0  0
  7 24  1  0  0  0  0
  2 24  1  0  0  0  0
 24 25  2  0  0  0  0
M  END
>  <Catalog ID>
Z384988750

>  <Plate_ID>
2026983-X50-02

>  <Well>
A11

>  <V, µL>
50

>  <Conc, mM>
10

>  <Formula>
C16H19N5O4

>  <MW>
345.3532

>  <Purity>
100

>  <PO>
5A-64168

>  <MW_salt>
0

>  <Stereochem.data>
Achiral

>  <Geometric.isomer>
None

>  <Chemical name>
1-cyclopropyl-3-[3-(4,4-dimethyl-2,5-dioxoimidazolidin-1-yl)propyl]-2,4-dioxo-1,2,3,4-tetrahydropyrimidine-5-carbonitrile

>  <ClogP>
0,603

>  <logS>
-2,06

>  <HBD>
1

>  <HBA>
5

>  <TPSA>
113,82

>  <RotBonds>
5

$$$$

  Mrv1925 04172511352D          

 23 24  0  0  0  0            999 V2000
   -4.2868   -4.1250    0.0000 C   0  0  0  0  0  0  0  0  0  0  0  0
   -3.5724   -4.5375    0.0000 C   0  0  0  0  0  0  0  0  0  0  0  0
   -2.8579   -4.1250    0.0000 N   0  0  0  0  0  0  0  0  0  0  0  0
   -2.1434   -4.5375    0.0000 C   0  0  0  0  0  0  0  0  0  0  0  0
   -2.1434   -5.3625    0.0000 O   0  0  0  0  0  0  0  0  0  0  0  0
   -1.4289   -4.1250    0.0000 C   0  0  0  0  0  0  0  0  0  0  0  0
   -0.7145   -4.5375    0.0000 N   0  0  0  0  0  0  0  0  0  0  0  0
    0.0000   -4.1250    0.0000 C   0  0  0  0  0  0  0  0  0  0  0  0
    0.7145   -4.5375    0.0000 C   0  0  0  0  0  0  0  0  0  0  0  0
    0.7145   -5.3625    0.0000 N   0  0  0  0  0  0  0  0  0  0  0  0
    1.4289   -5.7750    0.0000 C   0  0  0  0  0  0  0  0  0  0  0  0
    2.1434   -5.3625    0.0000 C   0  0  0  0  0  0  0  0  0  0  0  0
    2.1434   -4.5375    0.0000 C   0  0  0  0  0  0  0  0  0  0  0  0
    2.8579   -4.1250    0.0000 C   0  0  0  0  0  0  0  0  0  0  0  0
    2.8579   -3.3000    0.0000 O   0  0  0  0  0  0  0  0  0  0  0  0
    3.5724   -4.5375    0.0000 N   0  0  0  0  0  0  0  0  0  0  0  0
    4.2868   -4.1250    0.0000 C   0  0  0  0  0  0  0  0  0  0  0  0
    3.5724   -5.3625    0.0000 C   0  0  0  0  0  0  0  0  0  0  0  0
    4.2868   -5.7750    0.0000 O   0  0  0  0  0  0  0  0  0  0  0  0
    2.8579   -5.7750    0.0000 N   0  0  0  0  0  0  0  0  0  0  0  0
    2.8579   -6.6000    0.0000 C   0  0  0  0  0  0  0  0  0  0  0  0
    0.0000   -5.7750    0.0000 C   0  0  0  0  0  0  0  0  0  0  0  0
   -0.7145   -5.3625    0.0000 C   0  0  0  0  0  0  0  0  0  0  0  0
  1  2  1  0  0  0  0
  2  3  1  0  0  0  0
  3  4  1  0  0  0  0
  4  5  2  0  0  0  0
  4  6  1  0  0  0  0
  6  7  1  0  0  0  0
  7  8  1  0  0  0  0
  8  9  1  0  0  0  0
  9 10  1  0  0  0  0
 10 11  1  0  0  0  0
 11 12  1  0  0  0  0
 12 13  2  0  0  0  0
 13 14  1  0  0  0  0
 14 15  2  0  0  0  0
 14 16  1  0  0  0  0
 16 17  1  0  0  0  0
 16 18  1  0  0  0  0
 18 19  2  0  0  0  0
 18 20  1  0  0  0  0
 12 20  1  0  0  0  0
 20 21  1  0  0  0  0
 10 22  1  0  0  0  0
 22 23  1  0  0  0  0
  7 23  1  0  0  0  0
M  END
>  <Catalog ID>
Z319144664

>  <Plate_ID>
2026983-X50-02

>  <Well>
B11

>  <V, µL>
50

>  <Conc, mM>
10

>  <Formula>
C15H25N5O3

>  <MW>
323.3907

>  <Purity>
99.31

>  <PO>
5A-64168

>  <MW_salt>
0

>  <Stereochem.data>
Achiral

>  <Geometric.isomer>
None

>  <Chemical name>
2-{4-[(1,3-dimethyl-2,6-dioxo-1,2,3,6-tetrahydropyrimidin-4-yl)methyl]piperazin-1-yl}-N-ethylacetamide

>  <ClogP>
-0,437

>  <logS>
0,477

>  <HBD>
1

>  <HBA>
5

>  <TPSA>
76,2

>  <RotBonds>
5

$$$$

  Mrv1925 04172511352D          

 21 22  0  0  0  0            999 V2000
    2.0922   -2.1564    0.0000 C   0  0  0  0  0  0  0  0  0  0  0  0
    2.0922   -2.9814    0.0000 N   0  0  0  0  0  0  0  0  0  0  0  0
    2.8066   -3.3939    0.0000 C   0  0  0  0  0  0  0  0  0  0  0  0
    2.8066   -4.2189    0.0000 C   0  0  0  0  0  0  0  0  0  0  0  0
    3.5211   -4.6314    0.0000 C   0  0  0  0  0  0  0  0  0  0  0  0
    3.5211   -5.4564    0.0000 C   0  0  0  0  0  0  0  0  0  0  0  0
    4.2356   -5.8689    0.0000 C   0  0  0  0  0  0  0  0  0  0  0  0
    4.9500   -5.4564    0.0000 O   0  0  0  0  0  0  0  0  0  0  0  0
    4.2356   -6.6939    0.0000 N   0  0  0  0  0  0  0  0  0  0  0  0
    4.9789   -7.0519    0.0000 C   0  0  0  0  0  0  0  0  0  0  0  0
    5.1624   -7.8562    0.0000 C   0  0  0  0  0  0  0  0  0  0  0  0
    4.6481   -8.5012    0.0000 C   0  0  0  0  0  0  0  0  0  0  0  0
    3.8231   -8.5012    0.0000 C   0  0  0  0  0  0  0  0  0  0  0  0
    3.3087   -7.8562    0.0000 C   0  0  0  0  0  0  0  0  0  0  0  0
    3.4923   -7.0519    0.0000 C   0  0  0  0  0  0  0  0  0  0  0  0
    2.0922   -4.6314    0.0000 C   0  0  0  0  0  0  0  0  0  0  0  0
    2.0922   -5.4564    0.0000 O   0  0  0  0  0  0  0  0  0  0  0  0
    1.3777   -4.2189    0.0000 N   0  0  0  0  0  0  0  0  0  0  0  0
    0.6632   -4.6314    0.0000 C   0  0  0  0  0  0  0  0  0  0  0  0
    1.3777   -3.3939    0.0000 C   0  0  0  0  0  0  0  0  0  0  0  0
    0.6632   -2.9814    0.0000 O   0  0  0  0  0  0  0  0  0  0  0  0
  1  2  1  0  0  0  0
  2  3  1  0  0  0  0
  3  4  2  0  0  0  0
  5  4  1  4  0  0  0
  5  6  2  0  0  0  0
  6  7  1  0  0  0  0
  7  8  2  0  0  0  0
  7  9  1  0  0  0  0
  9 10  1  0  0  0  0
 10 11  1  0  0  0  0
 11 12  1  0  0  0  0
 12 13  1  0  0  0  0
 13 14  1  0  0  0  0
 14 15  1  0  0  0  0
  9 15  1  0  0  0  0
  4 16  1  0  0  0  0
 16 17  2  0  0  0  0
 16 18  1  0  0  0  0
 18 19  1  0  0  0  0
 18 20  1  0  0  0  0
  2 20  1  0  0  0  0
 20 21  2  0  0  0  0
M  END
>  <Catalog ID>
Z2865985250

>  <Plate_ID>
2026983-X50-02

>  <Well>
C11

>  <V, µL>
50

>  <Conc, mM>
10

>  <Formula>
C15H21N3O3

>  <MW>
291.3455

>  <Purity>
100

>  <PO>
5A-64168

>  <MW_salt>
0

>  <Stereochem.data>
Achiral

>  <Geometric.isomer>
None

>  <Chemical name>
5-[3-(azepan-1-yl)-3-oxoprop-1-en-1-yl]-1,3-dimethyl-1,2,3,4-tetrahydropyrimidine-2,4-dione

>  <ClogP>
0,767

>  <logS>
-1,715

>  <HBD>
0

>  <HBA>
3

>  <TPSA>
60,93

>  <RotBonds>
2

$$$$

  Mrv1925 04172511352D          

 22 24  0  0  0  0            999 V2000
    4.2868   -0.8250    0.0000 N   0  0  0  0  0  0  0  0  0  0  0  0
    3.5724   -0.4125    0.0000 C   0  0  0  0  0  0  0  0  0  0  0  0
    2.8579   -0.0000    0.0000 C   0  0  0  0  0  0  0  0  0  0  0  0
    2.1434   -0.4125    0.0000 C   0  0  0  0  0  0  0  0  0  0  0  0
    1.4289   -0.0000    0.0000 N   0  0  0  0  0  0  0  0  0  0  0  0
    0.7145   -0.4125    0.0000 C   0  0  0  0  0  0  0  0  0  0  0  0
    0.7145   -1.2375    0.0000 C   0  0  0  0  0  0  0  0  0  0  0  0
    1.3819   -1.7224    0.0000 C   0  0  0  0  0  0  0  0  0  0  0  0
    1.1270   -2.5070    0.0000 C   0  0  0  0  0  0  0  0  0  0  0  0
    0.3020   -2.5070    0.0000 N   0  0  0  0  0  0  0  0  0  0  0  0
    0.0470   -1.7224    0.0000 C   0  0  0  0  0  0  0  0  0  0  0  0
   -0.1830   -3.1745    0.0000 C   0  0  0  0  0  0  0  0  0  0  0  0
    0.1526   -3.9282    0.0000 C   0  0  0  0  0  0  0  0  0  0  0  0
   -0.3323   -4.5956    0.0000 C   0  0  0  0  0  0  0  0  0  0  0  0
   -1.1528   -4.5094    0.0000 C   0  0  0  0  0  0  0  0  0  0  0  0
   -1.4884   -3.7557    0.0000 C   0  0  0  0  0  0  0  0  0  0  0  0
   -1.0034   -3.0882    0.0000 C   0  0  0  0  0  0  0  0  0  0  0  0
    1.4289    0.8250    0.0000 C   0  0  0  0  0  0  0  0  0  0  0  0
    0.7145    1.2375    0.0000 O   0  0  0  0  0  0  0  0  0  0  0  0
    2.1434    1.2375    0.0000 N   0  0  0  0  0  0  0  0  0  0  0  0
    2.8579    0.8250    0.0000 C   0  0  0  0  0  0  0  0  0  0  0  0
    3.5724    1.2375    0.0000 O   0  0  0  0  0  0  0  0  0  0  0  0
  1  2  3  0  0  0  0
  2  3  1  0  0  0  0
  3  4  2  0  0  0  0
  4  5  1  0  0  0  0
  5  6  1  0  0  0  0
  6  7  1  0  0  0  0
  7  8  1  0  0  0  0
  8  9  1  0  0  0  0
  9 10  1  0  0  0  0
 10 11  1  0  0  0  0
  7 11  1  0  0  0  0
 10 12  1  0  0  0  0
 12 13  1  0  0  0  0
 13 14  2  0  0  0  0
 14 15  1  0  0  0  0
 15 16  2  0  0  0  0
 16 17  1  0  0  0  0
 12 17  2  0  0  0  0
  5 18  1  0  0  0  0
 18 19  2  0  0  0  0
 18 20  1  0  0  0  0
 20 21  1  0  0  0  0
  3 21  1  0  0  0  0
 21 22  2  0  0  0  0
M  END
>  <Catalog ID>
Z666564728

>  <Plate_ID>
2026983-X50-02

>  <Well>
D11

>  <V, µL>
50

>  <Conc, mM>
10

>  <Formula>
C16H16N4O2

>  <MW>
296.3238

>  <Purity>
100

>  <PO>
5A-64168

>  <MW_salt>
0

>  <Stereochem.data>
Racemic or presumed racemic or meso

>  <Geometric.isomer>
None

>  <Chemical name>
2,4-dioxo-1-[(1-phenylpyrrolidin-3-yl)methyl]-1,2,3,4-tetrahydropyrimidine-5-carbonitrile

>  <ClogP>
0,73

>  <logS>
-3,04

>  <HBD>
1

>  <HBA>
4

>  <TPSA>
76,44

>  <RotBonds>
3

$$$$

  Mrv1925 04172511352D          

 18 18  0  0  0  0            999 V2000
    0.0000    0.0000    0.0000 Cl  0  0  0  0  0  0  0  0  0  0  0  0
    3.7861    2.0382    0.0000 C   0  0  0  0  0  0  0  0  0  0  0  0
    3.7861    1.2132    0.0000 N   0  0  0  0  0  0  0  0  0  0  0  0
    4.5006    0.8007    0.0000 C   0  0  0  0  0  0  0  0  0  0  0  0
    5.2150    1.2132    0.0000 O   0  0  0  0  0  0  0  0  0  0  0  0
    4.5006   -0.0243    0.0000 C   0  0  0  0  0  0  0  0  0  0  0  0
    3.7861   -0.4368    0.0000 C   0  0  0  0  0  0  0  0  0  0  0  0
    3.7861   -1.2618    0.0000 N   0  0  0  0  0  0  0  0  0  0  0  0
    3.0716   -0.0243    0.0000 N   0  0  0  0  0  0  0  0  0  0  0  0
    2.3571   -0.4368    0.0000 C   0  0  0  0  0  0  0  0  0  0  0  0
    3.0716    0.8007    0.0000 C   0  0  0  0  0  0  0  0  0  0  0  0
    2.3571    1.2132    0.0000 O   0  0  0  0  0  0  0  0  0  0  0  0
    5.2150   -0.4368    0.0000 N   0  0  0  0  0  0  0  0  0  0  0  0
    5.9295   -0.0243    0.0000 C   0  0  0  0  0  0  0  0  0  0  0  0
    6.6440   -0.4368    0.0000 C   0  0  0  0  0  0  0  0  0  0  0  0
    6.6440   -1.2618    0.0000 N   0  0  0  0  0  0  0  0  0  0  0  0
    5.9295   -1.6743    0.0000 C   0  0  0  0  0  0  0  0  0  0  0  0
    5.2150   -1.2618    0.0000 C   0  0  0  0  0  0  0  0  0  0  0  0
  2  3  1  0  0  0  0
  3  4  1  0  0  0  0
  4  5  2  0  0  0  0
  4  6  1  0  0  0  0
  6  7  2  0  0  0  0
  7  8  1  0  0  0  0
  7  9  1  0  0  0  0
  9 10  1  0  0  0  0
  9 11  1  0  0  0  0
  3 11  1  0  0  0  0
 11 12  2  0  0  0  0
  6 13  1  0  0  0  0
 13 14  1  0  0  0  0
 14 15  1  0  0  0  0
 15 16  1  0  0  0  0
 16 17  1  0  0  0  0
 17 18  1  0  0  0  0
 13 18  1  0  0  0  0
M  END
>  <Catalog ID>
Z104442664

>  <Plate_ID>
2026983-X50-02

>  <Well>
E11

>  <V, µL>
50

>  <Conc, mM>
10

>  <Formula>
C10H18ClN5O2

>  <MW>
275.7352

>  <Purity>
100

>  <PO>
5A-64168

>  <Salt smiles>
Cl

>  <Salt_name>
Hydrochloric Acid

>  <Salt_ratio>
1

>  <MW_salt>
36.4609

>  <Stereochem.data>
Achiral

>  <Geometric.isomer>
None

>  <Chemical name>
6-amino-1,3-dimethyl-5-(piperazin-1-yl)-1,2,3,4-tetrahydropyrimidine-2,4-dione hydrochloride

>  <ClogP>
-1,146

>  <logS>
-0,79

>  <HBD>
2

>  <HBA>
5

>  <TPSA>
81,91

>  <RotBonds>
1

$$$$

  Mrv1925 04172511352D          

 27 28  0  0  0  0            999 V2000
    2.8579   -0.0000    0.0000 C   0  0  0  0  0  0  0  0  0  0  0  0
    2.1434   -0.4125    0.0000 C   0  0  0  0  0  0  0  0  0  0  0  0
    2.1434   -1.2375    0.0000 O   0  0  0  0  0  0  0  0  0  0  0  0
    1.4289   -0.0000    0.0000 O   0  0  0  0  0  0  0  0  0  0  0  0
    0.7145   -0.4125    0.0000 C   0  0  0  0  0  0  0  0  0  0  0  0
    0.7145   -1.2375    0.0000 C   0  0  0  0  0  0  0  0  0  0  0  0
    1.3819   -1.7224    0.0000 O   0  0  0  0  0  0  0  0  0  0  0  0
    1.1270   -2.5070    0.0000 C   0  0  0  0  0  0  0  0  0  0  0  0
    0.3020   -2.5070    0.0000 C   0  0  0  0  0  0  0  0  0  0  0  0
   -0.1830   -3.1745    0.0000 O   0  0  0  0  0  0  0  0  0  0  0  0
   -1.0034   -3.0882    0.0000 C   0  0  0  0  0  0  0  0  0  0  0  0
   -1.4884   -3.7557    0.0000 C   0  0  0  0  0  0  0  0  0  0  0  0
   -1.3390   -2.3346    0.0000 O   0  0  0  0  0  0  0  0  0  0  0  0
    0.0470   -1.7224    0.0000 C   0  0  0  0  0  0  0  0  0  0  0  0
   -0.7376   -1.4675    0.0000 O   0  0  0  0  0  0  0  0  0  0  0  0
   -0.9091   -0.6605    0.0000 C   0  0  0  0  0  0  0  0  0  0  0  0
   -1.6937   -0.4056    0.0000 C   0  0  0  0  0  0  0  0  0  0  0  0
   -0.2960   -0.1085    0.0000 O   0  0  0  0  0  0  0  0  0  0  0  0
    1.6119   -3.1745    0.0000 N   0  0  0  0  0  0  0  0  0  0  0  0
    2.4324   -3.0882    0.0000 C   0  0  0  0  0  0  0  0  0  0  0  0
    2.9173   -3.7557    0.0000 C   0  0  0  0  0  0  0  0  0  0  0  0
    3.7378   -3.6695    0.0000 F   0  0  0  0  0  0  0  0  0  0  0  0
    2.5817   -4.5094    0.0000 C   0  0  0  0  0  0  0  0  0  0  0  0
    3.0667   -5.1768    0.0000 O   0  0  0  0  0  0  0  0  0  0  0  0
    1.7613   -4.5956    0.0000 N   0  0  0  0  0  0  0  0  0  0  0  0
    1.2763   -3.9282    0.0000 C   0  0  0  0  0  0  0  0  0  0  0  0
    0.4559   -4.0144    0.0000 O   0  0  0  0  0  0  0  0  0  0  0  0
  1  2  1  0  0  0  0
  2  3  2  0  0  0  0
  2  4  1  0  0  0  0
  4  5  1  0  0  0  0
  5  6  1  0  0  0  0
  6  7  1  0  0  0  0
  7  8  1  0  0  0  0
  8  9  1  0  0  0  0
  9 10  1  0  0  0  0
 10 11  1  0  0  0  0
 11 12  1  0  0  0  0
 11 13  2  0  0  0  0
  9 14  1  0  0  0  0
  6 14  1  0  0  0  0
 14 15  1  0  0  0  0
 15 16  1  0  0  0  0
 16 17  1  0  0  0  0
 16 18  2  0  0  0  0
  8 19  1  0  0  0  0
 19 20  1  0  0  0  0
 20 21  2  0  0  0  0
 21 22  1  0  0  0  0
 21 23  1  0  0  0  0
 23 24  2  0  0  0  0
 23 25  1  0  0  0  0
 25 26  1  0  0  0  0
 19 26  1  0  0  0  0
 26 27  2  0  0  0  0
M  END
>  <Catalog ID>
Z56786767

>  <Plate_ID>
2026983-X50-02

>  <Well>
F11

>  <V, µL>
50

>  <Conc, mM>
10

>  <Formula>
C15H17FN2O9

>  <MW>
388.3019

>  <Purity>
100

>  <PO>
5A-64168

>  <MW_salt>
0

>  <Stereochem.data>
Diastereomeric mixture

>  <Geometric.isomer>
None

>  <Chemical name>
[3,4-bis(acetyloxy)-5-(5-fluoro-2,4-dioxo-1,2,3,4-tetrahydropyrimidin-1-yl)oxolan-2-yl]methyl acetate

>  <ClogP>
0,212

>  <logS>
-2,19

>  <HBD>
1

>  <HBA>
6

>  <TPSA>
137,54

>  <RotBonds>
8

$$$$

  Mrv1925 04172511352D          

 26 29  0  0  0  0            999 V2000
    5.2309    2.5855    0.0000 C   0  0  0  0  0  0  0  0  0  0  0  0
    4.8184    3.3000    0.0000 C   0  0  0  0  0  0  0  0  0  0  0  0
    3.9934    3.3000    0.0000 C   0  0  0  0  0  0  0  0  0  0  0  0
    3.1684    3.3000    0.0000 C   0  0  0  0  0  0  0  0  0  0  0  0
    3.1684    4.1250    0.0000 C   0  0  0  0  0  0  0  0  0  0  0  0
    3.9934    4.1250    0.0000 C   0  0  0  0  0  0  0  0  0  0  0  0
    3.9934    2.4750    0.0000 C   0  0  0  0  0  0  0  0  0  0  0  0
    4.7079    2.0625    0.0000 O   0  0  0  0  0  0  0  0  0  0  0  0
    3.2789    2.0625    0.0000 N   0  0  0  0  0  0  0  0  0  0  0  0
    3.2789    1.2375    0.0000 C   0  0  0  0  0  0  0  0  0  0  0  0
    3.9934    0.8250    0.0000 N   0  0  0  0  0  0  0  0  0  0  0  0
    3.9934    0.0000    0.0000 C   0  0  0  0  0  0  0  0  0  0  0  0
    3.2789   -0.4125    0.0000 N   0  0  0  0  0  0  0  0  0  0  0  0
    2.5645    0.0000    0.0000 C   0  0  0  0  0  0  0  0  0  0  0  0
    2.5645    0.8250    0.0000 C   0  0  0  0  0  0  0  0  0  0  0  0
    1.7798    1.0799    0.0000 C   0  0  0  0  0  0  0  0  0  0  0  0
    1.5249    1.8646    0.0000 C   0  0  0  0  0  0  0  0  0  0  0  0
    1.2949    0.4125    0.0000 C   0  0  0  0  0  0  0  0  0  0  0  0
    0.4699    0.4125    0.0000 C   0  0  0  0  0  0  0  0  0  0  0  0
    1.7798   -0.2549    0.0000 N   0  0  0  0  0  0  0  0  0  0  0  0
    1.5249   -1.0396    0.0000 C   0  0  0  0  0  0  0  0  0  0  0  0
    0.7179   -1.2111    0.0000 C   0  0  0  0  0  0  0  0  0  0  0  0
    0.3824   -1.9648    0.0000 C   0  0  0  0  0  0  0  0  0  0  0  0
   -0.4381   -1.8785    0.0000 C   0  0  0  0  0  0  0  0  0  0  0  0
   -0.6096   -1.0716    0.0000 C   0  0  0  0  0  0  0  0  0  0  0  0
    0.1048   -0.6591    0.0000 O   0  0  0  0  0  0  0  0  0  0  0  0
  1  2  1  0  0  0  0
  2  3  1  0  0  0  0
  3  4  1  0  0  0  0
  4  5  1  0  0  0  0
  5  6  1  0  0  0  0
  3  6  1  0  0  0  0
  3  7  1  0  0  0  0
  7  8  2  0  0  0  0
  7  9  1  0  0  0  0
  9 10  1  0  0  0  0
 10 11  1  0  0  0  0
 11 12  2  0  0  0  0
 12 13  1  0  0  0  0
 13 14  2  0  0  0  0
 14 15  1  0  0  0  0
 10 15  2  0  0  0  0
 15 16  1  0  0  0  0
 16 17  1  0  0  0  0
 16 18  2  0  0  0  0
 18 19  1  0  0  0  0
 18 20  1  0  0  0  0
 14 20  1  0  0  0  0
 20 21  1  0  0  0  0
 21 22  1  0  0  0  0
 22 23  1  0  0  0  0
 23 24  1  0  0  0  0
 24 25  1  0  0  0  0
 25 26  1  0  0  0  0
 22 26  1  0  0  0  0
M  END
>  <Catalog ID>
Z1779548012

>  <Plate_ID>
2026983-X50-02

>  <Well>
G11

>  <V, µL>
50

>  <Conc, mM>
10

>  <Formula>
C20H28N4O2

>  <MW>
356.4619

>  <Purity>
100

>  <PO>
5A-64168

>  <MW_salt>
0

>  <Stereochem.data>
Racemic or presumed racemic or meso

>  <Geometric.isomer>
None

>  <Chemical name>
N-{5,6-dimethyl-7-[(oxolan-2-yl)methyl]-7H-pyrrolo[2,3-d]pyrimidin-4-yl}-1-ethylcyclobutane-1-carboxamide

>  <ClogP>
3,655

>  <logS>
-4,8

>  <HBD>
1

>  <HBA>
4

>  <TPSA>
69,04

>  <RotBonds>
5

$$$$

  Mrv1925 04172511352D          

 19 19  0  0  0  0            999 V2000
    0.7145   -3.7125    0.0000 C   0  0  0  0  0  0  0  0  0  0  0  0
    1.4289   -4.1250    0.0000 O   0  0  0  0  0  0  0  0  0  0  0  0
    2.1434   -3.7125    0.0000 C   0  0  0  0  0  0  0  0  0  0  0  0
    2.8579   -4.1250    0.0000 C   0  0  0  0  0  0  0  0  0  0  0  0
    2.8579   -4.9500    0.0000 C   0  0  0  0  0  0  0  0  0  0  0  0
    3.5724   -3.7125    0.0000 N   0  0  0  0  0  0  0  0  0  0  0  0
    3.5724   -2.8875    0.0000 C   0  0  0  0  0  0  0  0  0  0  0  0
    4.2868   -4.1250    0.0000 C   0  0  0  0  0  0  0  0  0  0  0  0
    4.2868   -4.9500    0.0000 O   0  0  0  0  0  0  0  0  0  0  0  0
    5.0013   -3.7125    0.0000 C   0  0  0  0  0  0  0  0  0  0  0  0
    5.7158   -4.1250    0.0000 N   0  0  0  0  0  0  0  0  0  0  0  0
    6.4302   -3.7125    0.0000 C   0  0  0  0  0  0  0  0  0  0  0  0
    7.1447   -4.1250    0.0000 C   0  0  0  0  0  0  0  0  0  0  0  0
    7.1447   -4.9500    0.0000 C   0  0  0  0  0  0  0  0  0  0  0  0
    7.8592   -5.3625    0.0000 O   0  0  0  0  0  0  0  0  0  0  0  0
    6.4302   -5.3625    0.0000 N   0  0  0  0  0  0  0  0  0  0  0  0
    6.4302   -6.1875    0.0000 C   0  0  0  0  0  0  0  0  0  0  0  0
    5.7158   -4.9500    0.0000 C   0  0  0  0  0  0  0  0  0  0  0  0
    5.0013   -5.3625    0.0000 O   0  0  0  0  0  0  0  0  0  0  0  0
  1  2  1  0  0  0  0
  2  3  1  0  0  0  0
  3  4  1  0  0  0  0
  4  5  1  0  0  0  0
  4  6  1  0  0  0  0
  6  7  1  0  0  0  0
  6  8  1  0  0  0  0
  8  9  2  0  0  0  0
  8 10  1  0  0  0  0
 10 11  1  0  0  0  0
 11 12  1  0  0  0  0
 12 13  2  0  0  0  0
 13 14  1  0  0  0  0
 14 15  2  0  0  0  0
 14 16  1  0  0  0  0
 16 17  1  0  0  0  0
 16 18  1  0  0  0  0
 11 18  1  0  0  0  0
 18 19  2  0  0  0  0
M  END
>  <Catalog ID>
Z511654116

>  <Plate_ID>
2026983-X50-02

>  <Well>
H11

>  <V, µL>
50

>  <Conc, mM>
10

>  <Formula>
C12H19N3O4

>  <MW>
269.297

>  <Purity>
97.98

>  <PO>
5A-64168

>  <MW_salt>
0

>  <Stereochem.data>
Racemic or presumed racemic or meso

>  <Geometric.isomer>
None

>  <Chemical name>
N-(1-methoxypropan-2-yl)-N-methyl-2-(3-methyl-2,4-dioxo-1,2,3,4-tetrahydropyrimidin-1-yl)acetamide

>  <ClogP>
0,285

>  <logS>
-0,335

>  <HBD>
0

>  <HBA>
4

>  <TPSA>
70,16

>  <RotBonds>
5

$$$$

  Mrv1925 04172511352D          

 29 32  0  0  1  0            999 V2000
    4.5553    5.9907    0.0000 C   0  0  0  0  0  0  0  0  0  0  0  0
    4.8908    5.2370    0.0000 O   0  0  0  0  0  0  0  0  0  0  0  0
    4.4059    4.5695    0.0000 C   0  0  1  0  0  0  0  0  0  0  0  0
    4.6608    3.7849    0.0000 C   0  0  0  0  0  0  0  0  0  0  0  0
    3.9934    3.3000    0.0000 C   0  0  1  0  0  0  0  0  0  0  0  0
    3.9934    2.4750    0.0000 C   0  0  0  0  0  0  0  0  0  0  0  0
    3.2789    2.0625    0.0000 N   0  0  0  0  0  0  0  0  0  0  0  0
    2.5645    2.4750    0.0000 C   0  0  0  0  0  0  0  0  0  0  0  0
    3.2789    1.2375    0.0000 C   0  0  0  0  0  0  0  0  0  0  0  0
    3.9934    0.8250    0.0000 N   0  0  0  0  0  0  0  0  0  0  0  0
    3.9934    0.0000    0.0000 C   0  0  0  0  0  0  0  0  0  0  0  0
    3.2789   -0.4125    0.0000 N   0  0  0  0  0  0  0  0  0  0  0  0
    2.5645    0.0000    0.0000 C   0  0  0  0  0  0  0  0  0  0  0  0
    2.5645    0.8250    0.0000 C   0  0  0  0  0  0  0  0  0  0  0  0
    1.7798    1.0799    0.0000 N   0  0  0  0  0  0  0  0  0  0  0  0
    1.2949    0.4125    0.0000 C   0  0  0  0  0  0  0  0  0  0  0  0
    1.7798   -0.2549    0.0000 N   0  0  0  0  0  0  0  0  0  0  0  0
    1.5249   -1.0396    0.0000 C   0  0  0  0  0  0  0  0  0  0  0  0
    2.0769   -1.6527    0.0000 C   0  0  0  0  0  0  0  0  0  0  0  0
    2.8839   -1.4811    0.0000 C   0  0  0  0  0  0  0  0  0  0  0  0
    3.4359   -2.0942    0.0000 O   0  0  0  0  0  0  0  0  0  0  0  0
    1.8220   -2.4373    0.0000 C   0  0  0  0  0  0  0  0  0  0  0  0
    2.3069   -3.1047    0.0000 C   0  0  0  0  0  0  0  0  0  0  0  0
    1.8220   -3.7722    0.0000 C   0  0  0  0  0  0  0  0  0  0  0  0
    1.0374   -3.5172    0.0000 O   0  0  0  0  0  0  0  0  0  0  0  0
    1.0374   -2.6922    0.0000 C   0  0  0  0  0  0  0  0  0  0  0  0
    3.3260    3.7849    0.0000 N   0  0  0  0  0  0  0  0  0  0  0  0
    2.5413    3.5300    0.0000 C   0  0  0  0  0  0  0  0  0  0  0  0
    3.5809    4.5695    0.0000 C   0  0  0  0  0  0  0  0  0  0  0  0
  1  2  1  0  0  0  0
  3  2  1  1  0  0  0
  3  4  1  0  0  0  0
  5  4  1  0  0  0  0
  5  6  1  1  0  0  0
  6  7  1  0  0  0  0
  7  8  1  0  0  0  0
  7  9  1  0  0  0  0
  9 10  1  0  0  0  0
 10 11  2  0  0  0  0
 11 12  1  0  0  0  0
 12 13  2  0  0  0  0
 13 14  1  0  0  0  0
  9 14  2  0  0  0  0
 14 15  1  0  0  0  0
 15 16  2  0  0  0  0
 16 17  1  0  0  0  0
 13 17  1  0  0  0  0
 17 18  1  0  0  0  0
 18 19  1  0  0  0  0
 19 20  1  0  0  0  0
 20 21  1  0  0  0  0
 19 22  1  0  0  0  0
 22 23  1  0  0  0  0
 23 24  1  0  0  0  0
 24 25  1  0  0  0  0
 25 26  1  0  0  0  0
 22 26  1  0  0  0  0
  5 27  1  0  0  0  0
 27 28  1  0  0  0  0
 27 29  1  0  0  0  0
  3 29  1  0  0  0  0
M  END
>  <Catalog ID>
Z2760968953

>  <Plate_ID>
2026983-X50-03

>  <Well>
A02

>  <V, µL>
50

>  <Conc, mM>
10

>  <Formula>
C20H32N6O3

>  <MW>
404.5065

>  <Purity>
97.73

>  <PO>
5A-64168

>  <MW_salt>
0

>  <Stereochem.data>
Diastereomeric mixture

>  <Geometric.isomer>
None

>  <Chemical name>
3-[6-({[(2S,4S)-4-methoxy-1-methylpyrrolidin-2-yl]methyl}(methyl)amino)-9H-purin-9-yl]-2-(oxolan-3-yl)propan-1-ol

>  <ClogP>
-0,001

>  <logS>
-1,821

>  <HBD>
1

>  <HBA>
8

>  <TPSA>
88,77

>  <RotBonds>
8

$$$$

  Mrv1925 04172511352D          

 27 30  0  0  0  0            999 V2000
    1.9282    4.0820    0.0000 C   0  0  0  0  0  0  0  0  0  0  0  0
    2.5413    3.5300    0.0000 C   0  0  0  0  0  0  0  0  0  0  0  0
    3.3260    3.7849    0.0000 N   0  0  0  0  0  0  0  0  0  0  0  0
    3.5809    4.5695    0.0000 C   0  0  0  0  0  0  0  0  0  0  0  0
    4.4059    4.5695    0.0000 C   0  0  0  0  0  0  0  0  0  0  0  0
    4.6608    3.7849    0.0000 C   0  0  0  0  0  0  0  0  0  0  0  0
    3.9934    3.3000    0.0000 C   0  0  0  0  0  0  0  0  0  0  0  0
    3.9934    2.4750    0.0000 C   0  0  0  0  0  0  0  0  0  0  0  0
    3.2789    2.0625    0.0000 N   0  0  0  0  0  0  0  0  0  0  0  0
    2.5645    2.4750    0.0000 C   0  0  0  0  0  0  0  0  0  0  0  0
    3.2789    1.2375    0.0000 C   0  0  0  0  0  0  0  0  0  0  0  0
    3.9934    0.8250    0.0000 N   0  0  0  0  0  0  0  0  0  0  0  0
    3.9934    0.0000    0.0000 C   0  0  0  0  0  0  0  0  0  0  0  0
    3.2789   -0.4125    0.0000 N   0  0  0  0  0  0  0  0  0  0  0  0
    2.5645    0.0000    0.0000 C   0  0  0  0  0  0  0  0  0  0  0  0
    2.5645    0.8250    0.0000 C   0  0  0  0  0  0  0  0  0  0  0  0
    1.7798    1.0799    0.0000 N   0  0  0  0  0  0  0  0  0  0  0  0
    1.2949    0.4125    0.0000 C   0  0  0  0  0  0  0  0  0  0  0  0
    1.7798   -0.2549    0.0000 N   0  0  0  0  0  0  0  0  0  0  0  0
    1.5249   -1.0396    0.0000 C   0  0  0  0  0  0  0  0  0  0  0  0
    2.0769   -1.6527    0.0000 C   0  0  0  0  0  0  0  0  0  0  0  0
    1.3773   -2.0898    0.0000 O   0  0  0  0  0  0  0  0  0  0  0  0
    2.5848   -1.0025    0.0000 C   0  0  0  0  0  0  0  0  0  0  0  0
    3.4018   -1.1174    0.0000 C   0  0  0  0  0  0  0  0  0  0  0  0
    3.7109   -1.8823    0.0000 O   0  0  0  0  0  0  0  0  0  0  0  0
    3.2030   -2.5324    0.0000 C   0  0  0  0  0  0  0  0  0  0  0  0
    2.3860   -2.4176    0.0000 C   0  0  0  0  0  0  0  0  0  0  0  0
  1  2  1  0  0  0  0
  2  3  1  0  0  0  0
  3  4  1  0  0  0  0
  4  5  1  0  0  0  0
  5  6  1  0  0  0  0
  6  7  1  0  0  0  0
  3  7  1  0  0  0  0
  7  8  1  0  0  0  0
  8  9  1  0  0  0  0
  9 10  1  0  0  0  0
  9 11  1  0  0  0  0
 11 12  1  0  0  0  0
 12 13  2  0  0  0  0
 13 14  1  0  0  0  0
 14 15  2  0  0  0  0
 15 16  1  0  0  0  0
 11 16  2  0  0  0  0
 16 17  1  0  0  0  0
 17 18  2  0  0  0  0
 18 19  1  0  0  0  0
 15 19  1  0  0  0  0
 19 20  1  0  0  0  0
 20 21  1  0  0  0  0
 21 22  1  0  0  0  0
 21 23  1  0  0  0  0
 23 24  1  0  0  0  0
 24 25  1  0  0  0  0
 25 26  1  0  0  0  0
 26 27  1  0  0  0  0
 21 27  1  0  0  0  0
M  END
>  <Catalog ID>
Z2760951661

>  <Plate_ID>
2026983-X50-03

>  <Well>
B02

>  <V, µL>
50

>  <Conc, mM>
10

>  <Formula>
C19H30N6O2

>  <MW>
374.4805

>  <Purity>
100

>  <PO>
5A-64168

>  <MW_salt>
0

>  <Stereochem.data>
Racemic or presumed racemic or meso

>  <Geometric.isomer>
None

>  <Chemical name>
4-[(6-{[(1-ethylpyrrolidin-2-yl)methyl](methyl)amino}-9H-purin-9-yl)methyl]oxan-4-ol

>  <ClogP>
0,685

>  <logS>
-2,523

>  <HBD>
1

>  <HBA>
7

>  <TPSA>
79,54

>  <RotBonds>
6

$$$$

  Mrv1925 04172511352D          

 28 32  0  0  0  0            999 V2000
    0.0000   -1.6500    0.0000 C   0  0  0  0  0  0  0  0  0  0  0  0
    0.7145   -1.2375    0.0000 N   0  0  0  0  0  0  0  0  0  0  0  0
    0.7145   -0.4125    0.0000 C   0  0  0  0  0  0  0  0  0  0  0  0
    1.4289    0.0000    0.0000 C   0  0  0  0  0  0  0  0  0  0  0  0
    2.1434   -0.4125    0.0000 C   0  0  0  0  0  0  0  0  0  0  0  0
    2.8579    0.0000    0.0000 O   0  0  0  0  0  0  0  0  0  0  0  0
    3.5724   -0.4125    0.0000 C   0  0  0  0  0  0  0  0  0  0  0  0
    3.5724   -1.2375    0.0000 C   0  0  0  0  0  0  0  0  0  0  0  0
    2.8579   -1.6500    0.0000 N   0  0  0  0  0  0  0  0  0  0  0  0
    2.8579   -2.4750    0.0000 C   0  0  0  0  0  0  0  0  0  0  0  0
    3.5724   -2.8875    0.0000 N   0  0  0  0  0  0  0  0  0  0  0  0
    3.5724   -3.7125    0.0000 C   0  0  0  0  0  0  0  0  0  0  0  0
    2.8579   -4.1250    0.0000 N   0  0  0  0  0  0  0  0  0  0  0  0
    2.1434   -3.7125    0.0000 C   0  0  0  0  0  0  0  0  0  0  0  0
    2.1434   -2.8875    0.0000 C   0  0  0  0  0  0  0  0  0  0  0  0
    1.3588   -2.6326    0.0000 N   0  0  0  0  0  0  0  0  0  0  0  0
    0.8739   -3.3000    0.0000 C   0  0  0  0  0  0  0  0  0  0  0  0
    1.3588   -3.9674    0.0000 N   0  0  0  0  0  0  0  0  0  0  0  0
    1.1039   -4.7521    0.0000 C   0  0  0  0  0  0  0  0  0  0  0  0
    1.6559   -5.3652    0.0000 C   0  0  0  0  0  0  0  0  0  0  0  0
    0.9562   -5.8023    0.0000 O   0  0  0  0  0  0  0  0  0  0  0  0
    2.1638   -4.7150    0.0000 C   0  0  0  0  0  0  0  0  0  0  0  0
    2.9808   -4.8299    0.0000 C   0  0  0  0  0  0  0  0  0  0  0  0
    3.2898   -5.5948    0.0000 O   0  0  0  0  0  0  0  0  0  0  0  0
    2.7819   -6.2449    0.0000 C   0  0  0  0  0  0  0  0  0  0  0  0
    1.9649   -6.1301    0.0000 C   0  0  0  0  0  0  0  0  0  0  0  0
    2.1434   -1.2375    0.0000 C   0  0  0  0  0  0  0  0  0  0  0  0
    1.4289   -1.6500    0.0000 C   0  0  0  0  0  0  0  0  0  0  0  0
  1  2  1  0  0  0  0
  2  3  1  0  0  0  0
  3  4  1  0  0  0  0
  4  5  1  0  0  0  0
  5  6  1  0  0  0  0
  6  7  1  0  0  0  0
  7  8  1  0  0  0  0
  8  9  1  0  0  0  0
  9 10  1  0  0  0  0
 10 11  1  0  0  0  0
 11 12  2  0  0  0  0
 12 13  1  0  0  0  0
 13 14  2  0  0  0  0
 14 15  1  0  0  0  0
 10 15  2  0  0  0  0
 15 16  1  0  0  0  0
 16 17  2  0  0  0  0
 17 18  1  0  0  0  0
 14 18  1  0  0  0  0
 18 19  1  0  0  0  0
 19 20  1  0  0  0  0
 20 21  1  0  0  0  0
 20 22  1  0  0  0  0
 22 23  1  0  0  0  0
 23 24  1  0  0  0  0
 24 25  1  0  0  0  0
 25 26  1  0  0  0  0
 20 26  1  0  0  0  0
  9 27  1  0  0  0  0
  5 27  1  0  0  0  0
 27 28  1  0  0  0  0
  2 28  1  0  0  0  0
M  END
>  <Catalog ID>
Z2760968928

>  <Plate_ID>
2026983-X50-03

>  <Well>
C02

>  <V, µL>
50

>  <Conc, mM>
10

>  <Formula>
C19H28N6O3

>  <MW>
388.464

>  <Purity>
100

>  <PO>
5A-64168

>  <MW_salt>
0

>  <Stereochem.data>
Diastereomeric mixture

>  <Geometric.isomer>
Unknown

>  <Chemical name>
4-[(6-{6-methyl-octahydro-2H-pyrido[4,3-b][1,4]oxazin-4-yl}-9H-purin-9-yl)methyl]oxan-4-ol

>  <ClogP>
-1,399

>  <logS>
-2,663

>  <HBD>
1

>  <HBA>
8

>  <TPSA>
88,77

>  <RotBonds>
3

$$$$

  Mrv1925 04172511352D          

 27 31  0  0  0  0            999 V2000
    4.7079    3.7125    0.0000 C   0  0  0  0  0  0  0  0  0  0  0  0
    3.9934    3.3000    0.0000 C   0  0  0  0  0  0  0  0  0  0  0  0
    3.9934    2.4750    0.0000 C   0  0  0  0  0  0  0  0  0  0  0  0
    3.2789    2.0625    0.0000 N   0  0  0  0  0  0  0  0  0  0  0  0
    2.5645    2.4750    0.0000 C   0  0  0  0  0  0  0  0  0  0  0  0
    2.5645    3.3000    0.0000 C   0  0  0  0  0  0  0  0  0  0  0  0
    3.2789    3.7125    0.0000 O   0  0  0  0  0  0  0  0  0  0  0  0
    1.8500    3.7125    0.0000 C   0  0  0  0  0  0  0  0  0  0  0  0
    1.0250    3.7125    0.0000 C   0  0  0  0  0  0  0  0  0  0  0  0
    1.4375    4.4270    0.0000 C   0  0  0  0  0  0  0  0  0  0  0  0
    3.2789    1.2375    0.0000 C   0  0  0  0  0  0  0  0  0  0  0  0
    3.9934    0.8250    0.0000 N   0  0  0  0  0  0  0  0  0  0  0  0
    3.9934    0.0000    0.0000 C   0  0  0  0  0  0  0  0  0  0  0  0
    3.2789   -0.4125    0.0000 N   0  0  0  0  0  0  0  0  0  0  0  0
    2.5645    0.0000    0.0000 C   0  0  0  0  0  0  0  0  0  0  0  0
    2.5645    0.8250    0.0000 C   0  0  0  0  0  0  0  0  0  0  0  0
    1.7798    1.0799    0.0000 N   0  0  0  0  0  0  0  0  0  0  0  0
    1.2949    0.4125    0.0000 C   0  0  0  0  0  0  0  0  0  0  0  0
    1.7798   -0.2549    0.0000 N   0  0  0  0  0  0  0  0  0  0  0  0
    1.5249   -1.0396    0.0000 C   0  0  0  0  0  0  0  0  0  0  0  0
    2.0769   -1.6527    0.0000 C   0  0  0  0  0  0  0  0  0  0  0  0
    1.3773   -2.0898    0.0000 O   0  0  0  0  0  0  0  0  0  0  0  0
    2.5848   -1.0025    0.0000 C   0  0  0  0  0  0  0  0  0  0  0  0
    3.4018   -1.1174    0.0000 C   0  0  0  0  0  0  0  0  0  0  0  0
    3.7109   -1.8823    0.0000 O   0  0  0  0  0  0  0  0  0  0  0  0
    3.2030   -2.5324    0.0000 C   0  0  0  0  0  0  0  0  0  0  0  0
    2.3860   -2.4176    0.0000 C   0  0  0  0  0  0  0  0  0  0  0  0
  1  2  1  0  0  0  0
  2  3  1  0  0  0  0
  3  4  1  0  0  0  0
  4  5  1  0  0  0  0
  5  6  1  0  0  0  0
  6  7  1  0  0  0  0
  2  7  1  0  0  0  0
  6  8  1  0  0  0  0
  8  9  1  0  0  0  0
  9 10  1  0  0  0  0
  8 10  1  0  0  0  0
  4 11  1  0  0  0  0
 11 12  1  0  0  0  0
 12 13  2  0  0  0  0
 13 14  1  0  0  0  0
 14 15  2  0  0  0  0
 15 16  1  0  0  0  0
 11 16  2  0  0  0  0
 16 17  1  0  0  0  0
 17 18  2  0  0  0  0
 18 19  1  0  0  0  0
 15 19  1  0  0  0  0
 19 20  1  0  0  0  0
 20 21  1  0  0  0  0
 21 22  1  0  0  0  0
 21 23  1  0  0  0  0
 23 24  1  0  0  0  0
 24 25  1  0  0  0  0
 25 26  1  0  0  0  0
 26 27  1  0  0  0  0
 21 27  1  0  0  0  0
M  END
>  <Catalog ID>
Z2760967636

>  <Plate_ID>
2026983-X50-03

>  <Well>
D02

>  <V, µL>
50

>  <Conc, mM>
10

>  <Formula>
C19H27N5O3

>  <MW>
373.4494

>  <Purity>
100

>  <PO>
5A-64168

>  <MW_salt>
0

>  <Stereochem.data>
Diastereomeric mixture

>  <Geometric.isomer>
Unequal mixture of geometric isomers

>  <Chemical name>
4-{[6-(2-cyclopropyl-6-methylmorpholin-4-yl)-9H-purin-9-yl]methyl}oxan-4-ol

>  <ClogP>
-0,042

>  <logS>
-3,503

>  <HBD>
1

>  <HBA>
7

>  <TPSA>
85,53

>  <RotBonds>
4

$$$$

  Mrv1925 04172511352D          

 27 30  0  0  0  0            999 V2000
    6.1368    4.5375    0.0000 C   0  0  0  0  0  0  0  0  0  0  0  0
    6.1368    3.7125    0.0000 C   0  0  0  0  0  0  0  0  0  0  0  0
    5.4223    3.3000    0.0000 N   0  0  0  0  0  0  0  0  0  0  0  0
    5.4223    2.4750    0.0000 C   0  0  0  0  0  0  0  0  0  0  0  0
    4.7079    2.0625    0.0000 C   0  0  0  0  0  0  0  0  0  0  0  0
    3.9934    2.4750    0.0000 C   0  0  0  0  0  0  0  0  0  0  0  0
    3.9934    3.3000    0.0000 C   0  0  0  0  0  0  0  0  0  0  0  0
    3.2789    3.7125    0.0000 C   0  0  0  0  0  0  0  0  0  0  0  0
    4.7079    3.7125    0.0000 C   0  0  0  0  0  0  0  0  0  0  0  0
    3.2789    2.0625    0.0000 N   0  0  0  0  0  0  0  0  0  0  0  0
    2.5645    2.4750    0.0000 C   0  0  0  0  0  0  0  0  0  0  0  0
    3.2789    1.2375    0.0000 C   0  0  0  0  0  0  0  0  0  0  0  0
    3.9934    0.8250    0.0000 N   0  0  0  0  0  0  0  0  0  0  0  0
    3.9934    0.0000    0.0000 C   0  0  0  0  0  0  0  0  0  0  0  0
    3.2789   -0.4125    0.0000 N   0  0  0  0  0  0  0  0  0  0  0  0
    2.5645    0.0000    0.0000 C   0  0  0  0  0  0  0  0  0  0  0  0
    2.5645    0.8250    0.0000 C   0  0  0  0  0  0  0  0  0  0  0  0
    1.7798    1.0799    0.0000 N   0  0  0  0  0  0  0  0  0  0  0  0
    1.2949    0.4125    0.0000 C   0  0  0  0  0  0  0  0  0  0  0  0
    1.7798   -0.2549    0.0000 N   0  0  0  0  0  0  0  0  0  0  0  0
    1.5249   -1.0396    0.0000 C   0  0  0  0  0  0  0  0  0  0  0  0
    2.0769   -1.6527    0.0000 C   0  0  0  0  0  0  0  0  0  0  0  0
    1.4095   -2.1376    0.0000 O   0  0  0  0  0  0  0  0  0  0  0  0
    2.6290   -1.0396    0.0000 C   0  0  0  0  0  0  0  0  0  0  0  0
    3.3826   -1.3751    0.0000 C   0  0  0  0  0  0  0  0  0  0  0  0
    3.2964   -2.1956    0.0000 O   0  0  0  0  0  0  0  0  0  0  0  0
    2.4894   -2.3671    0.0000 C   0  0  0  0  0  0  0  0  0  0  0  0
  1  2  1  0  0  0  0
  2  3  1  0  0  0  0
  3  4  1  0  0  0  0
  4  5  1  0  0  0  0
  5  6  1  0  0  0  0
  6  7  1  0  0  0  0
  7  8  1  0  0  0  0
  7  9  1  0  0  0  0
  3  9  1  0  0  0  0
  6 10  1  0  0  0  0
 10 11  1  0  0  0  0
 10 12  1  0  0  0  0
 12 13  1  0  0  0  0
 13 14  2  0  0  0  0
 14 15  1  0  0  0  0
 15 16  2  0  0  0  0
 16 17  1  0  0  0  0
 12 17  2  0  0  0  0
 17 18  1  0  0  0  0
 18 19  2  0  0  0  0
 19 20  1  0  0  0  0
 16 20  1  0  0  0  0
 20 21  1  0  0  0  0
 21 22  1  0  0  0  0
 22 23  1  0  0  0  0
 22 24  1  0  0  0  0
 24 25  1  0  0  0  0
 25 26  1  0  0  0  0
 26 27  1  0  0  0  0
 22 27  1  0  0  0  0
M  END
>  <Catalog ID>
Z2760948963

>  <Plate_ID>
2026983-X50-03

>  <Well>
E02

>  <V, µL>
50

>  <Conc, mM>
10

>  <Formula>
C19H30N6O2

>  <MW>
374.4805

>  <Purity>
97.4

>  <PO>
5A-64168

>  <MW_salt>
0

>  <Stereochem.data>
Diastereomeric mixture

>  <Geometric.isomer>
None

>  <Chemical name>
3-({6-[(1-ethyl-3-methylpiperidin-4-yl)(methyl)amino]-9H-purin-9-yl}methyl)oxolan-3-ol

>  <ClogP>
0,731

>  <logS>
-2,911

>  <HBD>
1

>  <HBA>
7

>  <TPSA>
79,54

>  <RotBonds>
5

$$$$

  Mrv1925 04172511352D          

 28 31  0  0  0  0            999 V2000
    6.4328    4.7084    0.0000 C   0  0  0  0  0  0  0  0  0  0  0  0
    5.7183    4.2959    0.0000 C   0  0  0  0  0  0  0  0  0  0  0  0
    5.7183    3.4709    0.0000 O   0  0  0  0  0  0  0  0  0  0  0  0
    5.0038    3.0584    0.0000 C   0  0  0  0  0  0  0  0  0  0  0  0
    4.7903    2.2615    0.0000 C   0  0  0  0  0  0  0  0  0  0  0  0
    3.9934    2.4750    0.0000 C   0  0  0  0  0  0  0  0  0  0  0  0
    3.2789    2.0625    0.0000 N   0  0  0  0  0  0  0  0  0  0  0  0
    2.5645    2.4750    0.0000 C   0  0  0  0  0  0  0  0  0  0  0  0
    3.2789    1.2375    0.0000 C   0  0  0  0  0  0  0  0  0  0  0  0
    3.9934    0.8250    0.0000 N   0  0  0  0  0  0  0  0  0  0  0  0
    3.9934    0.0000    0.0000 C   0  0  0  0  0  0  0  0  0  0  0  0
    3.2789   -0.4125    0.0000 N   0  0  0  0  0  0  0  0  0  0  0  0
    2.5645    0.0000    0.0000 C   0  0  0  0  0  0  0  0  0  0  0  0
    2.5645    0.8250    0.0000 C   0  0  0  0  0  0  0  0  0  0  0  0
    1.7798    1.0799    0.0000 N   0  0  0  0  0  0  0  0  0  0  0  0
    1.2949    0.4125    0.0000 C   0  0  0  0  0  0  0  0  0  0  0  0
    1.7798   -0.2549    0.0000 N   0  0  0  0  0  0  0  0  0  0  0  0
    1.5249   -1.0396    0.0000 C   0  0  0  0  0  0  0  0  0  0  0  0
    2.0769   -1.6527    0.0000 C   0  0  0  0  0  0  0  0  0  0  0  0
    1.4095   -2.1376    0.0000 O   0  0  0  0  0  0  0  0  0  0  0  0
    2.6290   -1.0396    0.0000 C   0  0  0  0  0  0  0  0  0  0  0  0
    3.3826   -1.3751    0.0000 C   0  0  0  0  0  0  0  0  0  0  0  0
    3.2964   -2.1956    0.0000 O   0  0  0  0  0  0  0  0  0  0  0  0
    2.4894   -2.3671    0.0000 C   0  0  0  0  0  0  0  0  0  0  0  0
    2.1539   -3.1208    0.0000 C   0  0  0  0  0  0  0  0  0  0  0  0
    4.2069    3.2719    0.0000 C   0  0  0  0  0  0  0  0  0  0  0  0
    3.4819    3.6655    0.0000 C   0  0  0  0  0  0  0  0  0  0  0  0
    4.2285    4.0966    0.0000 C   0  0  0  0  0  0  0  0  0  0  0  0
  1  2  1  0  0  0  0
  2  3  1  0  0  0  0
  3  4  1  0  0  0  0
  4  5  1  0  0  0  0
  5  6  1  0  0  0  0
  6  7  1  0  0  0  0
  7  8  1  0  0  0  0
  7  9  1  0  0  0  0
  9 10  1  0  0  0  0
 10 11  2  0  0  0  0
 11 12  1  0  0  0  0
 12 13  2  0  0  0  0
 13 14  1  0  0  0  0
  9 14  2  0  0  0  0
 14 15  1  0  0  0  0
 15 16  2  0  0  0  0
 16 17  1  0  0  0  0
 13 17  1  0  0  0  0
 17 18  1  0  0  0  0
 18 19  1  0  0  0  0
 19 20  1  0  0  0  0
 19 21  1  0  0  0  0
 21 22  1  0  0  0  0
 22 23  1  0  0  0  0
 23 24  1  0  0  0  0
 19 24  1  0  0  0  0
 24 25  1  0  0  0  0
  6 26  1  0  0  0  0
  4 26  1  0  0  0  0
 26 27  1  0  0  0  0
 26 28  1  0  0  0  0
M  END
>  <Catalog ID>
Z2760949293

>  <Plate_ID>
2026983-X50-03

>  <Well>
F02

>  <V, µL>
50

>  <Conc, mM>
10

>  <Formula>
C20H31N5O3

>  <MW>
389.4918

>  <Purity>
100

>  <PO>
5A-64168

>  <MW_salt>
0

>  <Stereochem.data>
Diastereomeric mixture

>  <Geometric.isomer>
None

>  <Chemical name>
3-({6-[(3-ethoxy-2,2-dimethylcyclobutyl)(methyl)amino]-9H-purin-9-yl}methyl)-2-methyloxolan-3-ol

>  <ClogP>
2,289

>  <logS>
-3,481

>  <HBD>
1

>  <HBA>
7

>  <TPSA>
85,53

>  <RotBonds>
6

$$$$

  Mrv1925 04172511352D          

 23 25  0  0  0  0            999 V2000
   -3.4712    0.7310    0.0000 C   0  0  0  0  0  0  0  0  0  0  0  0
   -3.0587    0.0165    0.0000 C   0  0  0  0  0  0  0  0  0  0  0  0
   -3.7732   -0.3960    0.0000 C   0  0  0  0  0  0  0  0  0  0  0  0
   -2.3442    0.4290    0.0000 C   0  0  0  0  0  0  0  0  0  0  0  0
   -2.6462   -0.6979    0.0000 N   0  0  0  0  0  0  0  0  0  0  0  0
   -1.8212   -0.6979    0.0000 C   0  0  0  0  0  0  0  0  0  0  0  0
   -1.4087   -1.4124    0.0000 C   0  0  0  0  0  0  0  0  0  0  0  0
   -0.5837   -1.4124    0.0000 C   0  0  0  0  0  0  0  0  0  0  0  0
   -0.1712   -0.6979    0.0000 N   0  0  0  0  0  0  0  0  0  0  0  0
    0.6538   -0.6979    0.0000 C   0  0  0  0  0  0  0  0  0  0  0  0
    1.1387   -0.0305    0.0000 N   0  0  0  0  0  0  0  0  0  0  0  0
    1.9233   -0.2854    0.0000 C   0  0  0  0  0  0  0  0  0  0  0  0
    2.6378    0.1271    0.0000 C   0  0  0  0  0  0  0  0  0  0  0  0
    3.3523   -0.2854    0.0000 C   0  0  0  0  0  0  0  0  0  0  0  0
    3.3523   -1.1104    0.0000 C   0  0  0  0  0  0  0  0  0  0  0  0
    2.6378   -1.5229    0.0000 C   0  0  0  0  0  0  0  0  0  0  0  0
    1.9233   -1.1104    0.0000 C   0  0  0  0  0  0  0  0  0  0  0  0
    1.1387   -1.3654    0.0000 N   0  0  0  0  0  0  0  0  0  0  0  0
   -1.8212   -2.1269    0.0000 C   0  0  0  0  0  0  0  0  0  0  0  0
   -1.4087   -2.8414    0.0000 O   0  0  0  0  0  0  0  0  0  0  0  0
   -2.6462   -2.1269    0.0000 N   0  0  0  0  0  0  0  0  0  0  0  0
   -3.0587   -1.4124    0.0000 C   0  0  0  0  0  0  0  0  0  0  0  0
   -3.8837   -1.4124    0.0000 O   0  0  0  0  0  0  0  0  0  0  0  0
  1  2  1  0  0  0  0
  2  3  1  0  0  0  0
  2  4  1  0  0  0  0
  2  5  1  0  0  0  0
  5  6  1  0  0  0  0
  6  7  2  0  0  0  0
  7  8  1  0  0  0  0
  8  9  1  0  0  0  0
  9 10  1  0  0  0  0
 10 11  2  0  0  0  0
 11 12  1  0  0  0  0
 12 13  1  0  0  0  0
 13 14  2  0  0  0  0
 14 15  1  0  0  0  0
 15 16  2  0  0  0  0
 16 17  1  0  0  0  0
 12 17  2  0  0  0  0
 17 18  1  0  0  0  0
 10 18  1  0  0  0  0
  7 19  1  0  0  0  0
 19 20  2  0  0  0  0
 19 21  1  0  0  0  0
 21 22  1  0  0  0  0
  5 22  1  0  0  0  0
 22 23  2  0  0  0  0
M  END
>  <Catalog ID>
Z2974688295

>  <Plate_ID>
2026983-X50-03

>  <Well>
G02

>  <V, µL>
50

>  <Conc, mM>
10

>  <Formula>
C16H19N5O2

>  <MW>
313.3544

>  <Purity>
100

>  <PO>
5A-64168

>  <MW_salt>
0

>  <Stereochem.data>
Achiral

>  <Geometric.isomer>
None

>  <Chemical name>
5-{[(1H-1,3-benzodiazol-2-yl)amino]methyl}-1-tert-butyl-1,2,3,4-tetrahydropyrimidine-2,4-dione

>  <ClogP>
1,379

>  <logS>
-3,821

>  <HBD>
3

>  <HBA>
4

>  <TPSA>
90,12

>  <RotBonds>
4

$$$$

  Mrv1925 04172511352D          

 27 30  0  0  0  0            999 V2000
    1.1355    2.4750    0.0000 C   0  0  0  0  0  0  0  0  0  0  0  0
    1.8500    2.0625    0.0000 C   0  0  0  0  0  0  0  0  0  0  0  0
    2.5645    2.4750    0.0000 C   0  0  0  0  0  0  0  0  0  0  0  0
    2.5645    3.3000    0.0000 C   0  0  0  0  0  0  0  0  0  0  0  0
    3.2789    3.7125    0.0000 O   0  0  0  0  0  0  0  0  0  0  0  0
    3.9934    3.3000    0.0000 C   0  0  0  0  0  0  0  0  0  0  0  0
    4.2756    4.0752    0.0000 C   0  0  0  0  0  0  0  0  0  0  0  0
    4.8059    3.1567    0.0000 C   0  0  0  0  0  0  0  0  0  0  0  0
    3.9934    2.4750    0.0000 C   0  0  0  0  0  0  0  0  0  0  0  0
    3.2789    2.0625    0.0000 N   0  0  0  0  0  0  0  0  0  0  0  0
    3.2789    1.2375    0.0000 C   0  0  0  0  0  0  0  0  0  0  0  0
    3.9934    0.8250    0.0000 N   0  0  0  0  0  0  0  0  0  0  0  0
    3.9934    0.0000    0.0000 C   0  0  0  0  0  0  0  0  0  0  0  0
    3.2789   -0.4125    0.0000 N   0  0  0  0  0  0  0  0  0  0  0  0
    2.5645    0.0000    0.0000 C   0  0  0  0  0  0  0  0  0  0  0  0
    2.5645    0.8250    0.0000 C   0  0  0  0  0  0  0  0  0  0  0  0
    1.7798    1.0799    0.0000 N   0  0  0  0  0  0  0  0  0  0  0  0
    1.2949    0.4125    0.0000 C   0  0  0  0  0  0  0  0  0  0  0  0
    1.7798   -0.2549    0.0000 N   0  0  0  0  0  0  0  0  0  0  0  0
    1.5249   -1.0396    0.0000 C   0  0  0  0  0  0  0  0  0  0  0  0
    1.8994   -1.7746    0.0000 C   0  0  0  0  0  0  0  0  0  0  0  0
    1.1644   -2.1492    0.0000 C   0  0  0  0  0  0  0  0  0  0  0  0
    1.5389   -2.8843    0.0000 C   0  0  0  0  0  0  0  0  0  0  0  0
    2.3628   -2.9274    0.0000 O   0  0  0  0  0  0  0  0  0  0  0  0
    0.4293   -2.5237    0.0000 C   0  0  0  0  0  0  0  0  0  0  0  0
   -0.2626   -2.0744    0.0000 O   0  0  0  0  0  0  0  0  0  0  0  0
    0.7898   -1.4141    0.0000 C   0  0  0  0  0  0  0  0  0  0  0  0
  1  2  1  0  0  0  0
  2  3  1  0  0  0  0
  3  4  1  0  0  0  0
  4  5  1  0  0  0  0
  5  6  1  0  0  0  0
  6  7  1  0  0  0  0
  6  8  1  0  0  0  0
  6  9  1  0  0  0  0
  9 10  1  0  0  0  0
  3 10  1  0  0  0  0
 10 11  1  0  0  0  0
 11 12  1  0  0  0  0
 12 13  2  0  0  0  0
 13 14  1  0  0  0  0
 14 15  2  0  0  0  0
 15 16  1  0  0  0  0
 11 16  2  0  0  0  0
 16 17  1  0  0  0  0
 17 18  2  0  0  0  0
 18 19  1  0  0  0  0
 15 19  1  0  0  0  0
 19 20  1  0  0  0  0
 20 21  1  0  0  0  0
 21 22  1  0  0  0  0
 22 23  1  0  0  0  0
 23 24  1  0  0  0  0
 22 25  1  0  0  0  0
 25 26  1  0  0  0  0
 22 27  1  0  0  0  0
 20 27  1  0  0  0  0
M  END
>  <Catalog ID>
Z2760977058

>  <Plate_ID>
2026983-X50-03

>  <Well>
H02

>  <V, µL>
50

>  <Conc, mM>
10

>  <Formula>
C19H29N5O3

>  <MW>
375.4653

>  <Purity>
97.91

>  <PO>
5A-64168

>  <MW_salt>
0

>  <Stereochem.data>
Racemic or presumed racemic or meso

>  <Geometric.isomer>
None

>  <Chemical name>
{3-[6-(5-ethyl-2,2-dimethylmorpholin-4-yl)-9H-purin-9-yl]-1-(hydroxymethyl)cyclobutyl}methanol

>  <ClogP>
0,493

>  <logS>
-2,623

>  <HBD>
2

>  <HBA>
7

>  <TPSA>
96,53

>  <RotBonds>
5

$$$$

  Mrv1925 04172511352D          

 26 29  0  0  0  0            999 V2000
   -0.3648   -3.6805    0.0000 O   0  0  0  0  0  0  0  0  0  0  0  0
    0.2483   -3.1285    0.0000 C   0  0  0  0  0  0  0  0  0  0  0  0
    0.0768   -2.3215    0.0000 C   0  0  0  0  0  0  0  0  0  0  0  0
    0.8838   -2.1500    0.0000 C   0  0  0  0  0  0  0  0  0  0  0  0
    1.1387   -1.3654    0.0000 N   0  0  0  0  0  0  0  0  0  0  0  0
    0.6538   -0.6979    0.0000 C   0  0  0  0  0  0  0  0  0  0  0  0
    1.1387   -0.0305    0.0000 N   0  0  0  0  0  0  0  0  0  0  0  0
    1.9233   -0.2854    0.0000 C   0  0  0  0  0  0  0  0  0  0  0  0
    2.6378    0.1271    0.0000 C   0  0  0  0  0  0  0  0  0  0  0  0
    3.3523   -0.2854    0.0000 N   0  0  0  0  0  0  0  0  0  0  0  0
    3.3523   -1.1104    0.0000 C   0  0  0  0  0  0  0  0  0  0  0  0
    2.6378   -1.5229    0.0000 N   0  0  0  0  0  0  0  0  0  0  0  0
    1.9233   -1.1104    0.0000 C   0  0  0  0  0  0  0  0  0  0  0  0
    2.6378    0.9521    0.0000 N   0  0  0  0  0  0  0  0  0  0  0  0
    1.9233    1.3646    0.0000 C   0  0  0  0  0  0  0  0  0  0  0  0
    1.9233    2.1896    0.0000 C   0  0  0  0  0  0  0  0  0  0  0  0
    2.6378    2.6021    0.0000 O   0  0  0  0  0  0  0  0  0  0  0  0
    3.3523    2.1896    0.0000 C   0  0  0  0  0  0  0  0  0  0  0  0
    3.3523    1.3646    0.0000 C   0  0  0  0  0  0  0  0  0  0  0  0
    4.0668    0.9521    0.0000 C   0  0  0  0  0  0  0  0  0  0  0  0
    4.7812    1.3646    0.0000 C   0  0  0  0  0  0  0  0  0  0  0  0
    4.7812    2.1896    0.0000 F   0  0  0  0  0  0  0  0  0  0  0  0
    5.4957    0.9521    0.0000 F   0  0  0  0  0  0  0  0  0  0  0  0
   -0.7302   -2.4931    0.0000 C   0  0  0  0  0  0  0  0  0  0  0  0
   -0.9017   -1.6861    0.0000 O   0  0  0  0  0  0  0  0  0  0  0  0
   -0.0947   -1.5146    0.0000 C   0  0  0  0  0  0  0  0  0  0  0  0
  1  2  1  0  0  0  0
  2  3  1  0  0  0  0
  3  4  1  0  0  0  0
  4  5  1  0  0  0  0
  5  6  1  0  0  0  0
  6  7  2  0  0  0  0
  7  8  1  0  0  0  0
  8  9  2  0  0  0  0
  9 10  1  0  0  0  0
 10 11  2  0  0  0  0
 11 12  1  0  0  0  0
 12 13  2  0  0  0  0
  8 13  1  0  0  0  0
  5 13  1  0  0  0  0
  9 14  1  0  0  0  0
 14 15  1  0  0  0  0
 15 16  1  0  0  0  0
 16 17  1  0  0  0  0
 17 18  1  0  0  0  0
 18 19  1  0  0  0  0
 14 19  1  0  0  0  0
 19 20  1  0  0  0  0
 20 21  1  0  0  0  0
 21 22  1  0  0  0  0
 21 23  1  0  0  0  0
  3 24  1  0  0  0  0
 24 25  1  0  0  0  0
 25 26  1  0  0  0  0
  3 26  1  0  0  0  0
M  END
>  <Catalog ID>
Z2760969048

>  <Plate_ID>
2026983-X50-03

>  <Well>
A03

>  <V, µL>
50

>  <Conc, mM>
10

>  <Formula>
C16H21F2N5O3

>  <MW>
369.3664

>  <Purity>
97.23

>  <PO>
5A-64168

>  <MW_salt>
0

>  <Stereochem.data>
Racemic or presumed racemic or meso

>  <Geometric.isomer>
None

>  <Chemical name>
[3-({6-[3-(2,2-difluoroethyl)morpholin-4-yl]-9H-purin-9-yl}methyl)oxetan-3-yl]methanol

>  <ClogP>
-1,39

>  <logS>
-2,346

>  <HBD>
1

>  <HBA>
7

>  <TPSA>
85,53

>  <RotBonds>
6

$$$$

  Mrv1925 04172511352D          

 27 30  0  0  1  0            999 V2000
    0.4292    2.5896    0.0000 C   0  0  0  0  0  0  0  0  0  0  0  0
    1.2138    2.8445    0.0000 O   0  0  0  0  0  0  0  0  0  0  0  0
    1.8269    2.2925    0.0000 C   0  0  0  0  0  0  0  0  0  0  0  0
    2.6115    2.5474    0.0000 C   0  0  2  0  0  0  0  0  0  0  0  0
    2.8664    3.3320    0.0000 C   0  0  0  0  0  0  0  0  0  0  0  0
    3.6914    3.3320    0.0000 C   0  0  2  0  0  0  0  0  0  0  0  0
    3.9464    2.5474    0.0000 C   0  0  0  0  0  0  0  0  0  0  0  0
    3.2789    2.0625    0.0000 N   0  0  0  0  0  0  0  0  0  0  0  0
    3.2789    1.2375    0.0000 C   0  0  0  0  0  0  0  0  0  0  0  0
    3.9934    0.8250    0.0000 N   0  0  0  0  0  0  0  0  0  0  0  0
    3.9934    0.0000    0.0000 C   0  0  0  0  0  0  0  0  0  0  0  0
    3.2789   -0.4125    0.0000 N   0  0  0  0  0  0  0  0  0  0  0  0
    2.5645    0.0000    0.0000 C   0  0  0  0  0  0  0  0  0  0  0  0
    2.5645    0.8250    0.0000 C   0  0  0  0  0  0  0  0  0  0  0  0
    1.7798    1.0799    0.0000 N   0  0  0  0  0  0  0  0  0  0  0  0
    1.2949    0.4125    0.0000 C   0  0  0  0  0  0  0  0  0  0  0  0
    1.7798   -0.2549    0.0000 N   0  0  0  0  0  0  0  0  0  0  0  0
    1.5249   -1.0396    0.0000 C   0  0  0  0  0  0  0  0  0  0  0  0
    2.0769   -1.6527    0.0000 C   0  0  0  0  0  0  0  0  0  0  0  0
    1.3773   -2.0898    0.0000 O   0  0  0  0  0  0  0  0  0  0  0  0
    2.5848   -1.0025    0.0000 C   0  0  0  0  0  0  0  0  0  0  0  0
    3.4018   -1.1174    0.0000 C   0  0  0  0  0  0  0  0  0  0  0  0
    3.7109   -1.8823    0.0000 O   0  0  0  0  0  0  0  0  0  0  0  0
    3.2030   -2.5324    0.0000 C   0  0  0  0  0  0  0  0  0  0  0  0
    2.3860   -2.4176    0.0000 C   0  0  0  0  0  0  0  0  0  0  0  0
    4.1764    3.9995    0.0000 O   0  0  0  0  0  0  0  0  0  0  0  0
    4.9968    3.9132    0.0000 C   0  0  0  0  0  0  0  0  0  0  0  0
  1  2  1  0  0  0  0
  2  3  1  0  0  0  0
  4  3  1  6  0  0  0
  4  5  1  0  0  0  0
  6  5  1  0  0  0  0
  6  7  1  0  0  0  0
  7  8  1  0  0  0  0
  4  8  1  0  0  0  0
  8  9  1  0  0  0  0
  9 10  1  0  0  0  0
 10 11  2  0  0  0  0
 11 12  1  0  0  0  0
 12 13  2  0  0  0  0
 13 14  1  0  0  0  0
  9 14  2  0  0  0  0
 14 15  1  0  0  0  0
 15 16  2  0  0  0  0
 16 17  1  0  0  0  0
 13 17  1  0  0  0  0
 17 18  1  0  0  0  0
 18 19  1  0  0  0  0
 19 20  1  0  0  0  0
 19 21  1  0  0  0  0
 21 22  1  0  0  0  0
 22 23  1  0  0  0  0
 23 24  1  0  0  0  0
 24 25  1  0  0  0  0
 19 25  1  0  0  0  0
  6 26  1  1  0  0  0
 26 27  1  0  0  0  0
M  END
>  <Catalog ID>
Z2760968811

>  <Plate_ID>
2026983-X50-03

>  <Well>
B03

>  <V, µL>
50

>  <Conc, mM>
10

>  <Formula>
C18H27N5O4

>  <MW>
377.4381

>  <Purity>
100

>  <PO>
5A-64168

>  <MW_salt>
0

>  <Stereochem.data>
Single known enantiomer

>  <Geometric.isomer>
None

>  <Chemical name>
4-({6-[(2S,4R)-4-methoxy-2-(methoxymethyl)pyrrolidin-1-yl]-9H-purin-9-yl}methyl)oxan-4-ol

>  <ClogP>
-1,143

>  <logS>
-2,687

>  <HBD>
1

>  <HBA>
8

>  <TPSA>
94,76

>  <RotBonds>
6

$$$$

  Mrv1925 04172511352D          

 27 30  0  0  1  0            999 V2000
    1.2138    2.8445    0.0000 N   0  0  0  0  0  0  0  0  0  0  0  0
    1.8269    2.2925    0.0000 C   0  0  0  0  0  0  0  0  0  0  0  0
    1.6553    1.4855    0.0000 O   0  0  0  0  0  0  0  0  0  0  0  0
    2.6115    2.5474    0.0000 C   0  0  2  0  0  0  0  0  0  0  0  0
    2.8664    3.3320    0.0000 C   0  0  0  0  0  0  0  0  0  0  0  0
    3.6914    3.3320    0.0000 C   0  0  1  0  0  0  0  0  0  0  0  0
    4.1764    3.9995    0.0000 F   0  0  0  0  0  0  0  0  0  0  0  0
    3.9464    2.5474    0.0000 C   0  0  0  0  0  0  0  0  0  0  0  0
    3.2789    2.0625    0.0000 N   0  0  0  0  0  0  0  0  0  0  0  0
    3.2789    1.2375    0.0000 C   0  0  0  0  0  0  0  0  0  0  0  0
    3.9934    0.8250    0.0000 N   0  0  0  0  0  0  0  0  0  0  0  0
    3.9934    0.0000    0.0000 C   0  0  0  0  0  0  0  0  0  0  0  0
    3.2789   -0.4125    0.0000 N   0  0  0  0  0  0  0  0  0  0  0  0
    2.5645    0.0000    0.0000 C   0  0  0  0  0  0  0  0  0  0  0  0
    2.5645    0.8250    0.0000 C   0  0  0  0  0  0  0  0  0  0  0  0
    1.7798    1.0799    0.0000 N   0  0  0  0  0  0  0  0  0  0  0  0
    1.2949    0.4125    0.0000 C   0  0  0  0  0  0  0  0  0  0  0  0
    1.7798   -0.2549    0.0000 N   0  0  0  0  0  0  0  0  0  0  0  0
    1.5249   -1.0396    0.0000 C   0  0  0  0  0  0  0  0  0  0  0  0
    2.0769   -1.6527    0.0000 C   0  0  0  0  0  0  0  0  0  0  0  0
    2.8839   -1.4811    0.0000 C   0  0  0  0  0  0  0  0  0  0  0  0
    3.4359   -2.0942    0.0000 O   0  0  0  0  0  0  0  0  0  0  0  0
    1.8220   -2.4373    0.0000 C   0  0  0  0  0  0  0  0  0  0  0  0
    2.3069   -3.1047    0.0000 C   0  0  0  0  0  0  0  0  0  0  0  0
    1.8220   -3.7722    0.0000 C   0  0  0  0  0  0  0  0  0  0  0  0
    1.0374   -3.5172    0.0000 O   0  0  0  0  0  0  0  0  0  0  0  0
    1.0374   -2.6922    0.0000 C   0  0  0  0  0  0  0  0  0  0  0  0
  1  2  1  0  0  0  0
  2  3  2  0  0  0  0
  4  2  1  6  0  0  0
  4  5  1  0  0  0  0
  6  5  1  0  0  0  0
  6  7  1  1  0  0  0
  6  8  1  0  0  0  0
  8  9  1  0  0  0  0
  4  9  1  0  0  0  0
  9 10  1  0  0  0  0
 10 11  1  0  0  0  0
 11 12  2  0  0  0  0
 12 13  1  0  0  0  0
 13 14  2  0  0  0  0
 14 15  1  0  0  0  0
 10 15  2  0  0  0  0
 15 16  1  0  0  0  0
 16 17  2  0  0  0  0
 17 18  1  0  0  0  0
 14 18  1  0  0  0  0
 18 19  1  0  0  0  0
 19 20  1  0  0  0  0
 20 21  1  0  0  0  0
 21 22  1  0  0  0  0
 20 23  1  0  0  0  0
 23 24  1  0  0  0  0
 24 25  1  0  0  0  0
 25 26  1  0  0  0  0
 26 27  1  0  0  0  0
 23 27  1  0  0  0  0
M  END
>  <Catalog ID>
Z2760969018

>  <Plate_ID>
2026983-X50-03

>  <Well>
C03

>  <V, µL>
50

>  <Conc, mM>
10

>  <Formula>
C17H23FN6O3

>  <MW>
378.4013

>  <Purity>
92

>  <PO>
5A-64168

>  <MW_salt>
0

>  <Stereochem.data>
Diastereomeric mixture

>  <Geometric.isomer>
None

>  <Chemical name>
(2S,4R)-4-fluoro-1-{9-[3-hydroxy-2-(oxolan-3-yl)propyl]-9H-purin-6-yl}pyrrolidine-2-carboxamide

>  <ClogP>
-1,663

>  <logS>
-3,069

>  <HBD>
2

>  <HBA>
7

>  <TPSA>
119,39

>  <RotBonds>
6

$$$$

  Mrv1925 04172511352D          

 28 31  0  0  0  0            999 V2000
    4.1764    3.9995    0.0000 O   0  0  0  0  0  0  0  0  0  0  0  0
    3.6914    3.3320    0.0000 C   0  0  0  0  0  0  0  0  0  0  0  0
    3.9464    2.5474    0.0000 C   0  0  0  0  0  0  0  0  0  0  0  0
    3.2789    2.0625    0.0000 N   0  0  0  0  0  0  0  0  0  0  0  0
    2.6115    2.5474    0.0000 C   0  0  0  0  0  0  0  0  0  0  0  0
    2.8664    3.3320    0.0000 N   0  0  0  0  0  0  0  0  0  0  0  0
    2.3815    3.9995    0.0000 C   0  0  0  0  0  0  0  0  0  0  0  0
    2.7171    4.7532    0.0000 C   0  0  0  0  0  0  0  0  0  0  0  0
    3.0526    5.5068    0.0000 F   0  0  0  0  0  0  0  0  0  0  0  0
    1.9634    5.0887    0.0000 F   0  0  0  0  0  0  0  0  0  0  0  0
    3.4707    4.4176    0.0000 F   0  0  0  0  0  0  0  0  0  0  0  0
    3.2789    1.2375    0.0000 C   0  0  0  0  0  0  0  0  0  0  0  0
    3.9934    0.8250    0.0000 N   0  0  0  0  0  0  0  0  0  0  0  0
    3.9934    0.0000    0.0000 C   0  0  0  0  0  0  0  0  0  0  0  0
    3.2789   -0.4125    0.0000 N   0  0  0  0  0  0  0  0  0  0  0  0
    2.5645    0.0000    0.0000 C   0  0  0  0  0  0  0  0  0  0  0  0
    2.5645    0.8250    0.0000 C   0  0  0  0  0  0  0  0  0  0  0  0
    1.7798    1.0799    0.0000 N   0  0  0  0  0  0  0  0  0  0  0  0
    1.2949    0.4125    0.0000 C   0  0  0  0  0  0  0  0  0  0  0  0
    1.7798   -0.2549    0.0000 N   0  0  0  0  0  0  0  0  0  0  0  0
    1.5249   -1.0396    0.0000 C   0  0  0  0  0  0  0  0  0  0  0  0
    1.8994   -1.7746    0.0000 C   0  0  0  0  0  0  0  0  0  0  0  0
    1.1644   -2.1492    0.0000 C   0  0  0  0  0  0  0  0  0  0  0  0
    1.5389   -2.8843    0.0000 C   0  0  0  0  0  0  0  0  0  0  0  0
    2.3628   -2.9274    0.0000 O   0  0  0  0  0  0  0  0  0  0  0  0
    0.4293   -2.5237    0.0000 C   0  0  0  0  0  0  0  0  0  0  0  0
   -0.2626   -2.0744    0.0000 O   0  0  0  0  0  0  0  0  0  0  0  0
    0.7898   -1.4141    0.0000 C   0  0  0  0  0  0  0  0  0  0  0  0
  1  2  2  0  0  0  0
  2  3  1  0  0  0  0
  3  4  1  0  0  0  0
  4  5  1  0  0  0  0
  5  6  1  0  0  0  0
  2  6  1  0  0  0  0
  6  7  1  0  0  0  0
  7  8  1  0  0  0  0
  8  9  1  0  0  0  0
  8 10  1  0  0  0  0
  8 11  1  0  0  0  0
  4 12  1  0  0  0  0
 12 13  1  0  0  0  0
 13 14  2  0  0  0  0
 14 15  1  0  0  0  0
 15 16  2  0  0  0  0
 16 17  1  0  0  0  0
 12 17  2  0  0  0  0
 17 18  1  0  0  0  0
 18 19  2  0  0  0  0
 19 20  1  0  0  0  0
 16 20  1  0  0  0  0
 20 21  1  0  0  0  0
 21 22  1  0  0  0  0
 22 23  1  0  0  0  0
 23 24  1  0  0  0  0
 24 25  1  0  0  0  0
 23 26  1  0  0  0  0
 26 27  1  0  0  0  0
 23 28  1  0  0  0  0
 21 28  1  0  0  0  0
M  END
>  <Catalog ID>
Z2760968730

>  <Plate_ID>
2026983-X50-03

>  <Well>
D03

>  <V, µL>
50

>  <Conc, mM>
10

>  <Formula>
C16H19F3N6O3

>  <MW>
400.3557

>  <Purity>
100

>  <PO>
5A-64168

>  <MW_salt>
0

>  <Stereochem.data>
Achiral

>  <Geometric.isomer>
None

>  <Chemical name>
1-{9-[3,3-bis(hydroxymethyl)cyclobutyl]-9H-purin-6-yl}-3-(2,2,2-trifluoroethyl)imidazolidin-4-one

>  <ClogP>
-1,181

>  <logS>
-2,604

>  <HBD>
2

>  <HBA>
7

>  <TPSA>
107,61

>  <RotBonds>
6

$$$$

  Mrv1925 04172511352D          

 25 27  0  0  0  0            999 V2000
    4.7079    4.5375    0.0000 C   0  0  0  0  0  0  0  0  0  0  0  0
    3.9934    4.1250    0.0000 O   0  0  0  0  0  0  0  0  0  0  0  0
    3.9934    3.3000    0.0000 C   0  0  0  0  0  0  0  0  0  0  0  0
    3.1684    3.3000    0.0000 C   0  0  0  0  0  0  0  0  0  0  0  0
    4.8184    3.3000    0.0000 C   0  0  0  0  0  0  0  0  0  0  0  0
    3.9934    2.4750    0.0000 C   0  0  0  0  0  0  0  0  0  0  0  0
    3.2789    2.0625    0.0000 N   0  0  0  0  0  0  0  0  0  0  0  0
    2.5645    2.4750    0.0000 C   0  0  0  0  0  0  0  0  0  0  0  0
    3.2789    1.2375    0.0000 C   0  0  0  0  0  0  0  0  0  0  0  0
    3.9934    0.8250    0.0000 N   0  0  0  0  0  0  0  0  0  0  0  0
    3.9934    0.0000    0.0000 C   0  0  0  0  0  0  0  0  0  0  0  0
    3.2789   -0.4125    0.0000 N   0  0  0  0  0  0  0  0  0  0  0  0
    2.5645    0.0000    0.0000 C   0  0  0  0  0  0  0  0  0  0  0  0
    2.5645    0.8250    0.0000 C   0  0  0  0  0  0  0  0  0  0  0  0
    1.7798    1.0799    0.0000 N   0  0  0  0  0  0  0  0  0  0  0  0
    1.2949    0.4125    0.0000 C   0  0  0  0  0  0  0  0  0  0  0  0
    1.7798   -0.2549    0.0000 N   0  0  0  0  0  0  0  0  0  0  0  0
    1.5249   -1.0396    0.0000 C   0  0  0  0  0  0  0  0  0  0  0  0
    1.8994   -1.7746    0.0000 C   0  0  0  0  0  0  0  0  0  0  0  0
    1.1644   -2.1492    0.0000 C   0  0  0  0  0  0  0  0  0  0  0  0
    1.5389   -2.8843    0.0000 C   0  0  0  0  0  0  0  0  0  0  0  0
    2.3628   -2.9274    0.0000 O   0  0  0  0  0  0  0  0  0  0  0  0
    0.4293   -2.5237    0.0000 C   0  0  0  0  0  0  0  0  0  0  0  0
   -0.2626   -2.0744    0.0000 O   0  0  0  0  0  0  0  0  0  0  0  0
    0.7898   -1.4141    0.0000 C   0  0  0  0  0  0  0  0  0  0  0  0
  1  2  1  0  0  0  0
  2  3  1  0  0  0  0
  3  4  1  0  0  0  0
  3  5  1  0  0  0  0
  3  6  1  0  0  0  0
  6  7  1  0  0  0  0
  7  8  1  0  0  0  0
  7  9  1  0  0  0  0
  9 10  1  0  0  0  0
 10 11  2  0  0  0  0
 11 12  1  0  0  0  0
 12 13  2  0  0  0  0
 13 14  1  0  0  0  0
  9 14  2  0  0  0  0
 14 15  1  0  0  0  0
 15 16  2  0  0  0  0
 16 17  1  0  0  0  0
 13 17  1  0  0  0  0
 17 18  1  0  0  0  0
 18 19  1  0  0  0  0
 19 20  1  0  0  0  0
 20 21  1  0  0  0  0
 21 22  1  0  0  0  0
 20 23  1  0  0  0  0
 23 24  1  0  0  0  0
 20 25  1  0  0  0  0
 18 25  1  0  0  0  0
M  END
>  <Catalog ID>
Z2760955377

>  <Plate_ID>
2026983-X50-03

>  <Well>
E03

>  <V, µL>
50

>  <Conc, mM>
10

>  <Formula>
C17H27N5O3

>  <MW>
349.428

>  <Purity>
96.05

>  <PO>
5A-64168

>  <MW_salt>
0

>  <Stereochem.data>
Achiral

>  <Geometric.isomer>
None

>  <Chemical name>
[1-(hydroxymethyl)-3-{6-[(2-methoxy-2-methylpropyl)(methyl)amino]-9H-purin-9-yl}cyclobutyl]methanol

>  <ClogP>
-0,154

>  <logS>
-1,52

>  <HBD>
2

>  <HBA>
7

>  <TPSA>
96,53

>  <RotBonds>
7

$$$$

  Mrv1925 04172511352D          

 29 32  0  0  0  0            999 V2000
    5.4223    4.9500    0.0000 C   0  0  0  0  0  0  0  0  0  0  0  0
    4.7079    4.5375    0.0000 O   0  0  0  0  0  0  0  0  0  0  0  0
    4.7079    3.7125    0.0000 C   0  0  0  0  0  0  0  0  0  0  0  0
    3.9934    3.3000    0.0000 C   0  0  0  0  0  0  0  0  0  0  0  0
    3.9934    2.4750    0.0000 C   0  0  0  0  0  0  0  0  0  0  0  0
    3.2789    2.0625    0.0000 N   0  0  0  0  0  0  0  0  0  0  0  0
    2.5645    2.4750    0.0000 C   0  0  0  0  0  0  0  0  0  0  0  0
    2.5645    3.3000    0.0000 C   0  0  0  0  0  0  0  0  0  0  0  0
    1.7520    3.1567    0.0000 C   0  0  0  0  0  0  0  0  0  0  0  0
    2.2823    4.0752    0.0000 C   0  0  0  0  0  0  0  0  0  0  0  0
    3.2789    3.7125    0.0000 O   0  0  0  0  0  0  0  0  0  0  0  0
    3.2789    1.2375    0.0000 C   0  0  0  0  0  0  0  0  0  0  0  0
    3.9934    0.8250    0.0000 N   0  0  0  0  0  0  0  0  0  0  0  0
    3.9934    0.0000    0.0000 C   0  0  0  0  0  0  0  0  0  0  0  0
    3.2789   -0.4125    0.0000 N   0  0  0  0  0  0  0  0  0  0  0  0
    2.5645    0.0000    0.0000 C   0  0  0  0  0  0  0  0  0  0  0  0
    2.5645    0.8250    0.0000 C   0  0  0  0  0  0  0  0  0  0  0  0
    1.7798    1.0799    0.0000 N   0  0  0  0  0  0  0  0  0  0  0  0
    1.2949    0.4125    0.0000 C   0  0  0  0  0  0  0  0  0  0  0  0
    1.7798   -0.2549    0.0000 N   0  0  0  0  0  0  0  0  0  0  0  0
    1.5249   -1.0396    0.0000 C   0  0  0  0  0  0  0  0  0  0  0  0
    2.0769   -1.6527    0.0000 C   0  0  0  0  0  0  0  0  0  0  0  0
    2.8839   -1.4811    0.0000 C   0  0  0  0  0  0  0  0  0  0  0  0
    3.4359   -2.0942    0.0000 O   0  0  0  0  0  0  0  0  0  0  0  0
    1.8220   -2.4373    0.0000 C   0  0  0  0  0  0  0  0  0  0  0  0
    2.3069   -3.1047    0.0000 C   0  0  0  0  0  0  0  0  0  0  0  0
    1.8220   -3.7722    0.0000 C   0  0  0  0  0  0  0  0  0  0  0  0
    1.0374   -3.5172    0.0000 O   0  0  0  0  0  0  0  0  0  0  0  0
    1.0374   -2.6922    0.0000 C   0  0  0  0  0  0  0  0  0  0  0  0
  1  2  1  0  0  0  0
  2  3  1  0  0  0  0
  3  4  1  0  0  0  0
  4  5  1  0  0  0  0
  5  6  1  0  0  0  0
  6  7  1  0  0  0  0
  7  8  1  0  0  0  0
  8  9  1  0  0  0  0
  8 10  1  0  0  0  0
  8 11  1  0  0  0  0
  4 11  1  0  0  0  0
  6 12  1  0  0  0  0
 12 13  1  0  0  0  0
 13 14  2  0  0  0  0
 14 15  1  0  0  0  0
 15 16  2  0  0  0  0
 16 17  1  0  0  0  0
 12 17  2  0  0  0  0
 17 18  1  0  0  0  0
 18 19  2  0  0  0  0
 19 20  1  0  0  0  0
 16 20  1  0  0  0  0
 20 21  1  0  0  0  0
 21 22  1  0  0  0  0
 22 23  1  0  0  0  0
 23 24  1  0  0  0  0
 22 25  1  0  0  0  0
 25 26  1  0  0  0  0
 26 27  1  0  0  0  0
 27 28  1  0  0  0  0
 28 29  1  0  0  0  0
 25 29  1  0  0  0  0
M  END
>  <Catalog ID>
Z2760968901

>  <Plate_ID>
2026983-X50-03

>  <Well>
F03

>  <V, µL>
50

>  <Conc, mM>
10

>  <Formula>
C20H31N5O4

>  <MW>
405.4912

>  <Purity>
100

>  <PO>
5A-64168

>  <MW_salt>
0

>  <Stereochem.data>
Diastereomeric mixture

>  <Geometric.isomer>
None

>  <Chemical name>
3-{6-[6-(methoxymethyl)-2,2-dimethylmorpholin-4-yl]-9H-purin-9-yl}-2-(oxolan-3-yl)propan-1-ol

>  <ClogP>
0,053

>  <logS>
-2,875

>  <HBD>
1

>  <HBA>
8

>  <TPSA>
94,76

>  <RotBonds>
7

$$$$

  Mrv1925 04172511352D          

 28 32  0  0  0  0            999 V2000
   -0.9037   -3.1848    0.0000 O   0  0  0  0  0  0  0  0  0  0  0  0
   -0.2118   -3.6342    0.0000 C   0  0  0  0  0  0  0  0  0  0  0  0
    0.5232   -3.2596    0.0000 C   0  0  0  0  0  0  0  0  0  0  0  0
    0.8978   -3.9947    0.0000 C   0  0  0  0  0  0  0  0  0  0  0  0
    1.7217   -4.0379    0.0000 O   0  0  0  0  0  0  0  0  0  0  0  0
    0.1487   -2.5245    0.0000 C   0  0  0  0  0  0  0  0  0  0  0  0
    0.8838   -2.1500    0.0000 C   0  0  0  0  0  0  0  0  0  0  0  0
    1.2583   -2.8851    0.0000 C   0  0  0  0  0  0  0  0  0  0  0  0
    1.1387   -1.3654    0.0000 N   0  0  0  0  0  0  0  0  0  0  0  0
    0.6538   -0.6979    0.0000 C   0  0  0  0  0  0  0  0  0  0  0  0
    1.1387   -0.0305    0.0000 N   0  0  0  0  0  0  0  0  0  0  0  0
    1.9233   -0.2854    0.0000 C   0  0  0  0  0  0  0  0  0  0  0  0
    2.6378    0.1271    0.0000 C   0  0  0  0  0  0  0  0  0  0  0  0
    3.3523   -0.2854    0.0000 N   0  0  0  0  0  0  0  0  0  0  0  0
    3.3523   -1.1104    0.0000 C   0  0  0  0  0  0  0  0  0  0  0  0
    2.6378   -1.5229    0.0000 N   0  0  0  0  0  0  0  0  0  0  0  0
    1.9233   -1.1104    0.0000 C   0  0  0  0  0  0  0  0  0  0  0  0
    2.6378    0.9521    0.0000 N   0  0  0  0  0  0  0  0  0  0  0  0
    1.9233    1.3646    0.0000 C   0  0  0  0  0  0  0  0  0  0  0  0
    1.9233    2.1896    0.0000 C   0  0  0  0  0  0  0  0  0  0  0  0
    2.6378    2.6021    0.0000 C   0  0  0  0  0  0  0  0  0  0  0  0
    3.3523    2.1896    0.0000 C   0  0  0  0  0  0  0  0  0  0  0  0
    3.3523    1.3646    0.0000 C   0  0  0  0  0  0  0  0  0  0  0  0
    2.6378    3.4271    0.0000 C   0  0  0  0  0  0  0  0  0  0  0  0
    1.9704    3.9120    0.0000 C   0  0  0  0  0  0  0  0  0  0  0  0
    2.2253    4.6966    0.0000 C   0  0  0  0  0  0  0  0  0  0  0  0
    3.0503    4.6966    0.0000 C   0  0  0  0  0  0  0  0  0  0  0  0
    3.3053    3.9120    0.0000 O   0  0  0  0  0  0  0  0  0  0  0  0
  1  2  1  0  0  0  0
  2  3  1  0  0  0  0
  3  4  1  0  0  0  0
  4  5  1  0  0  0  0
  3  6  1  0  0  0  0
  6  7  1  0  0  0  0
  7  8  1  0  0  0  0
  3  8  1  0  0  0  0
  7  9  1  0  0  0  0
  9 10  1  0  0  0  0
 10 11  2  0  0  0  0
 11 12  1  0  0  0  0
 12 13  1  0  0  0  0
 13 14  2  0  0  0  0
 14 15  1  0  0  0  0
 15 16  2  0  0  0  0
 16 17  1  0  0  0  0
 12 17  2  0  0  0  0
  9 17  1  0  0  0  0
 13 18  1  0  0  0  0
 18 19  1  0  0  0  0
 19 20  1  0  0  0  0
 20 21  1  0  0  0  0
 21 22  1  0  0  0  0
 22 23  1  0  0  0  0
 18 23  1  0  0  0  0
 21 24  1  0  0  0  0
 24 25  1  0  0  0  0
 25 26  1  0  0  0  0
 26 27  1  0  0  0  0
 27 28  1  0  0  0  0
 24 28  1  0  0  0  0
M  END
>  <Catalog ID>
Z2760963285

>  <Plate_ID>
2026983-X50-03

>  <Well>
G03

>  <V, µL>
50

>  <Conc, mM>
10

>  <Formula>
C20H29N5O3

>  <MW>
387.476

>  <Purity>
100

>  <PO>
5A-64168

>  <MW_salt>
0

>  <Stereochem.data>
Racemic or presumed racemic or meso

>  <Geometric.isomer>
None

>  <Chemical name>
[1-(hydroxymethyl)-3-{6-[4-(oxolan-2-yl)piperidin-1-yl]-9H-purin-9-yl}cyclobutyl]methanol

>  <ClogP>
-0,489

>  <logS>
-1,675

>  <HBD>
2

>  <HBA>
7

>  <TPSA>
96,53

>  <RotBonds>
5

$$$$

  Mrv1925 04172511352D          

 28 31  0  0  0  0            999 V2000
    3.4315    5.9907    0.0000 C   0  0  0  0  0  0  0  0  0  0  0  0
    3.0960    5.2370    0.0000 C   0  0  0  0  0  0  0  0  0  0  0  0
    2.2755    5.1507    0.0000 O   0  0  0  0  0  0  0  0  0  0  0  0
    3.5809    4.5695    0.0000 N   0  0  0  0  0  0  0  0  0  0  0  0
    4.4059    4.5695    0.0000 C   0  0  0  0  0  0  0  0  0  0  0  0
    4.6608    3.7849    0.0000 C   0  0  0  0  0  0  0  0  0  0  0  0
    3.9934    3.3000    0.0000 C   0  0  0  0  0  0  0  0  0  0  0  0
    3.9934    2.4750    0.0000 C   0  0  0  0  0  0  0  0  0  0  0  0
    3.2789    2.0625    0.0000 N   0  0  0  0  0  0  0  0  0  0  0  0
    2.5645    2.4750    0.0000 C   0  0  0  0  0  0  0  0  0  0  0  0
    3.2789    1.2375    0.0000 C   0  0  0  0  0  0  0  0  0  0  0  0
    3.9934    0.8250    0.0000 N   0  0  0  0  0  0  0  0  0  0  0  0
    3.9934    0.0000    0.0000 C   0  0  0  0  0  0  0  0  0  0  0  0
    3.2789   -0.4125    0.0000 N   0  0  0  0  0  0  0  0  0  0  0  0
    2.5645    0.0000    0.0000 C   0  0  0  0  0  0  0  0  0  0  0  0
    2.5645    0.8250    0.0000 C   0  0  0  0  0  0  0  0  0  0  0  0
    1.7798    1.0799    0.0000 N   0  0  0  0  0  0  0  0  0  0  0  0
    1.2949    0.4125    0.0000 C   0  0  0  0  0  0  0  0  0  0  0  0
    1.7798   -0.2549    0.0000 N   0  0  0  0  0  0  0  0  0  0  0  0
    1.5249   -1.0396    0.0000 C   0  0  0  0  0  0  0  0  0  0  0  0
    2.0769   -1.6527    0.0000 C   0  0  0  0  0  0  0  0  0  0  0  0
    2.8839   -1.4811    0.0000 O   0  0  0  0  0  0  0  0  0  0  0  0
    1.8220   -2.4373    0.0000 C   0  0  0  0  0  0  0  0  0  0  0  0
    2.3069   -3.1047    0.0000 C   0  0  0  0  0  0  0  0  0  0  0  0
    1.8220   -3.7722    0.0000 C   0  0  0  0  0  0  0  0  0  0  0  0
    1.0374   -3.5172    0.0000 C   0  0  0  0  0  0  0  0  0  0  0  0
    1.0374   -2.6922    0.0000 O   0  0  0  0  0  0  0  0  0  0  0  0
    3.3260    3.7849    0.0000 C   0  0  0  0  0  0  0  0  0  0  0  0
  1  2  1  0  0  0  0
  2  3  2  0  0  0  0
  2  4  1  0  0  0  0
  4  5  1  0  0  0  0
  5  6  1  0  0  0  0
  6  7  1  0  0  0  0
  7  8  1  0  0  0  0
  8  9  1  0  0  0  0
  9 10  1  0  0  0  0
  9 11  1  0  0  0  0
 11 12  1  0  0  0  0
 12 13  2  0  0  0  0
 13 14  1  0  0  0  0
 14 15  2  0  0  0  0
 15 16  1  0  0  0  0
 11 16  2  0  0  0  0
 16 17  1  0  0  0  0
 17 18  2  0  0  0  0
 18 19  1  0  0  0  0
 15 19  1  0  0  0  0
 19 20  1  0  0  0  0
 20 21  1  0  0  0  0
 21 22  1  0  0  0  0
 21 23  1  0  0  0  0
 23 24  1  0  0  0  0
 24 25  1  0  0  0  0
 25 26  1  0  0  0  0
 26 27  1  0  0  0  0
 23 27  1  0  0  0  0
  7 28  1  0  0  0  0
  4 28  1  0  0  0  0
M  END
>  <Catalog ID>
Z2760955962

>  <Plate_ID>
2026983-X50-03

>  <Well>
H03

>  <V, µL>
50

>  <Conc, mM>
10

>  <Formula>
C19H28N6O3

>  <MW>
388.464

>  <Purity>
97.94

>  <PO>
5A-64168

>  <MW_salt>
0

>  <Stereochem.data>
Diastereomeric mixture

>  <Geometric.isomer>
None

>  <Chemical name>
1-{3-[({9-[2-hydroxy-2-(oxolan-2-yl)ethyl]-9H-purin-6-yl}(methyl)amino)methyl]pyrrolidin-1-yl}ethan-1-one

>  <ClogP>
-1,248

>  <logS>
-2,834

>  <HBD>
1

>  <HBA>
7

>  <TPSA>
96,61

>  <RotBonds>
6

$$$$

  Mrv1925 04172511352D          

 27 31  0  0  0  0            999 V2000
    1.0330   -3.3834    0.0000 O   0  0  0  0  0  0  0  0  0  0  0  0
    0.2483   -3.1285    0.0000 C   0  0  0  0  0  0  0  0  0  0  0  0
    0.0768   -2.3215    0.0000 C   0  0  0  0  0  0  0  0  0  0  0  0
    0.8838   -2.1500    0.0000 C   0  0  0  0  0  0  0  0  0  0  0  0
    1.1387   -1.3654    0.0000 N   0  0  0  0  0  0  0  0  0  0  0  0
    0.6538   -0.6979    0.0000 C   0  0  0  0  0  0  0  0  0  0  0  0
    1.1387   -0.0305    0.0000 N   0  0  0  0  0  0  0  0  0  0  0  0
    1.9233   -0.2854    0.0000 C   0  0  0  0  0  0  0  0  0  0  0  0
    2.6378    0.1271    0.0000 C   0  0  0  0  0  0  0  0  0  0  0  0
    3.3523   -0.2854    0.0000 N   0  0  0  0  0  0  0  0  0  0  0  0
    3.3523   -1.1104    0.0000 C   0  0  0  0  0  0  0  0  0  0  0  0
    2.6378   -1.5229    0.0000 N   0  0  0  0  0  0  0  0  0  0  0  0
    1.9233   -1.1104    0.0000 C   0  0  0  0  0  0  0  0  0  0  0  0
    2.6378    0.9521    0.0000 N   0  0  0  0  0  0  0  0  0  0  0  0
    1.9233    1.3646    0.0000 C   0  0  0  0  0  0  0  0  0  0  0  0
    1.9233    2.1896    0.0000 C   0  0  0  0  0  0  0  0  0  0  0  0
    1.5108    2.9040    0.0000 C   0  0  0  0  0  0  0  0  0  0  0  0
    2.3358    2.9040    0.0000 C   0  0  0  0  0  0  0  0  0  0  0  0
    3.3523    1.3646    0.0000 C   0  0  0  0  0  0  0  0  0  0  0  0
    3.3523    2.1896    0.0000 C   0  0  0  0  0  0  0  0  0  0  0  0
    4.0668    2.6021    0.0000 C   0  0  0  0  0  0  0  0  0  0  0  0
    4.7812    2.1896    0.0000 C   0  0  0  0  0  0  0  0  0  0  0  0
    4.7812    1.3646    0.0000 C   0  0  0  0  0  0  0  0  0  0  0  0
    4.0668    0.9521    0.0000 C   0  0  0  0  0  0  0  0  0  0  0  0
   -0.7302   -2.4931    0.0000 C   0  0  0  0  0  0  0  0  0  0  0  0
   -0.9017   -1.6861    0.0000 O   0  0  0  0  0  0  0  0  0  0  0  0
   -0.0947   -1.5146    0.0000 C   0  0  0  0  0  0  0  0  0  0  0  0
  1  2  1  0  0  0  0
  2  3  1  0  0  0  0
  3  4  1  0  0  0  0
  4  5  1  0  0  0  0
  5  6  1  0  0  0  0
  6  7  2  0  0  0  0
  7  8  1  0  0  0  0
  8  9  2  0  0  0  0
  9 10  1  0  0  0  0
 10 11  2  0  0  0  0
 11 12  1  0  0  0  0
 12 13  2  0  0  0  0
  8 13  1  0  0  0  0
  5 13  1  0  0  0  0
  9 14  1  0  0  0  0
 14 15  1  0  0  0  0
 15 16  1  0  0  0  0
 16 17  1  0  0  0  0
 17 18  1  0  0  0  0
 16 18  1  0  0  0  0
 14 19  1  0  0  0  0
 19 20  1  0  0  0  0
 20 21  1  0  0  0  0
 21 22  1  0  0  0  0
 22 23  1  0  0  0  0
 23 24  1  0  0  0  0
 19 24  1  0  0  0  0
  3 25  1  0  0  0  0
 25 26  1  0  0  0  0
 26 27  1  0  0  0  0
  3 27  1  0  0  0  0
M  END
>  <Catalog ID>
Z2760943600

>  <Plate_ID>
2026983-X50-03

>  <Well>
A04

>  <V, µL>
50

>  <Conc, mM>
10

>  <Formula>
C20H29N5O2

>  <MW>
371.4766

>  <Purity>
95.49

>  <PO>
5A-64168

>  <MW_salt>
0

>  <Stereochem.data>
Achiral

>  <Geometric.isomer>
None

>  <Chemical name>
[3-({6-[cyclohexyl(cyclopropylmethyl)amino]-9H-purin-9-yl}methyl)oxetan-3-yl]methanol

>  <ClogP>
2,129

>  <logS>
-3,364

>  <HBD>
1

>  <HBA>
6

>  <TPSA>
76,3

>  <RotBonds>
7

$$$$

  Mrv1925 04172511352D          

 28 31  0  0  0  0            999 V2000
    1.1355    5.7750    0.0000 N   0  0  0  0  0  0  0  0  0  0  0  0
    1.1355    4.9500    0.0000 C   0  0  0  0  0  0  0  0  0  0  0  0
    0.4210    4.5375    0.0000 O   0  0  0  0  0  0  0  0  0  0  0  0
    1.8500    4.5375    0.0000 C   0  0  0  0  0  0  0  0  0  0  0  0
    1.8500    3.7125    0.0000 C   0  0  0  0  0  0  0  0  0  0  0  0
    2.5645    3.3000    0.0000 C   0  0  0  0  0  0  0  0  0  0  0  0
    3.2789    3.7125    0.0000 C   0  0  0  0  0  0  0  0  0  0  0  0
    3.9934    3.3000    0.0000 C   0  0  0  0  0  0  0  0  0  0  0  0
    3.9934    2.4750    0.0000 C   0  0  0  0  0  0  0  0  0  0  0  0
    3.2789    2.0625    0.0000 N   0  0  0  0  0  0  0  0  0  0  0  0
    2.5645    2.4750    0.0000 C   0  0  0  0  0  0  0  0  0  0  0  0
    3.2789    1.2375    0.0000 C   0  0  0  0  0  0  0  0  0  0  0  0
    3.9934    0.8250    0.0000 N   0  0  0  0  0  0  0  0  0  0  0  0
    3.9934    0.0000    0.0000 C   0  0  0  0  0  0  0  0  0  0  0  0
    3.2789   -0.4125    0.0000 N   0  0  0  0  0  0  0  0  0  0  0  0
    2.5645    0.0000    0.0000 C   0  0  0  0  0  0  0  0  0  0  0  0
    2.5645    0.8250    0.0000 C   0  0  0  0  0  0  0  0  0  0  0  0
    1.7798    1.0799    0.0000 N   0  0  0  0  0  0  0  0  0  0  0  0
    1.2949    0.4125    0.0000 C   0  0  0  0  0  0  0  0  0  0  0  0
    1.7798   -0.2549    0.0000 N   0  0  0  0  0  0  0  0  0  0  0  0
    1.5249   -1.0396    0.0000 C   0  0  0  0  0  0  0  0  0  0  0  0
    1.8994   -1.7746    0.0000 C   0  0  0  0  0  0  0  0  0  0  0  0
    1.1644   -2.1492    0.0000 C   0  0  0  0  0  0  0  0  0  0  0  0
    1.5389   -2.8843    0.0000 C   0  0  0  0  0  0  0  0  0  0  0  0
    2.3628   -2.9274    0.0000 O   0  0  0  0  0  0  0  0  0  0  0  0
    0.4293   -2.5237    0.0000 C   0  0  0  0  0  0  0  0  0  0  0  0
   -0.2626   -2.0744    0.0000 O   0  0  0  0  0  0  0  0  0  0  0  0
    0.7898   -1.4141    0.0000 C   0  0  0  0  0  0  0  0  0  0  0  0
  1  2  1  0  0  0  0
  2  3  2  0  0  0  0
  2  4  1  0  0  0  0
  4  5  1  0  0  0  0
  5  6  1  0  0  0  0
  6  7  1  0  0  0  0
  7  8  1  0  0  0  0
  8  9  1  0  0  0  0
  9 10  1  0  0  0  0
 10 11  1  0  0  0  0
  6 11  1  0  0  0  0
 10 12  1  0  0  0  0
 12 13  1  0  0  0  0
 13 14  2  0  0  0  0
 14 15  1  0  0  0  0
 15 16  2  0  0  0  0
 16 17  1  0  0  0  0
 12 17  2  0  0  0  0
 17 18  1  0  0  0  0
 18 19  2  0  0  0  0
 19 20  1  0  0  0  0
 16 20  1  0  0  0  0
 20 21  1  0  0  0  0
 21 22  1  0  0  0  0
 22 23  1  0  0  0  0
 23 24  1  0  0  0  0
 24 25  1  0  0  0  0
 23 26  1  0  0  0  0
 26 27  1  0  0  0  0
 23 28  1  0  0  0  0
 21 28  1  0  0  0  0
M  END
>  <Catalog ID>
Z2760943306

>  <Plate_ID>
2026983-X50-03

>  <Well>
B04

>  <V, µL>
50

>  <Conc, mM>
10

>  <Formula>
C19H28N6O3

>  <MW>
388.464

>  <Purity>
93.58

>  <PO>
5A-64168

>  <MW_salt>
0

>  <Stereochem.data>
Racemic or presumed racemic or meso

>  <Geometric.isomer>
None

>  <Chemical name>
3-(1-{9-[3,3-bis(hydroxymethyl)cyclobutyl]-9H-purin-6-yl}piperidin-3-yl)propanamide

>  <ClogP>
-1,5

>  <logS>
-1,977

>  <HBD>
3

>  <HBA>
7

>  <TPSA>
130,39

>  <RotBonds>
7

$$$$

  Mrv1925 04172511352D          

 29 33  0  0  0  0            999 V2000
    3.2789    3.7125    0.0000 O   0  0  0  0  0  0  0  0  0  0  0  0
    2.5645    3.3000    0.0000 C   0  0  0  0  0  0  0  0  0  0  0  0
    2.5645    2.4750    0.0000 C   0  0  0  0  0  0  0  0  0  0  0  0
    3.2789    2.0625    0.0000 N   0  0  0  0  0  0  0  0  0  0  0  0
    3.2789    1.2375    0.0000 C   0  0  0  0  0  0  0  0  0  0  0  0
    3.9934    0.8250    0.0000 N   0  0  0  0  0  0  0  0  0  0  0  0
    3.9934    0.0000    0.0000 C   0  0  0  0  0  0  0  0  0  0  0  0
    3.2789   -0.4125    0.0000 N   0  0  0  0  0  0  0  0  0  0  0  0
    2.5645    0.0000    0.0000 C   0  0  0  0  0  0  0  0  0  0  0  0
    2.5645    0.8250    0.0000 C   0  0  0  0  0  0  0  0  0  0  0  0
    1.7798    1.0799    0.0000 N   0  0  0  0  0  0  0  0  0  0  0  0
    1.2949    0.4125    0.0000 C   0  0  0  0  0  0  0  0  0  0  0  0
    1.7798   -0.2549    0.0000 N   0  0  0  0  0  0  0  0  0  0  0  0
    1.5249   -1.0396    0.0000 C   0  0  0  0  0  0  0  0  0  0  0  0
    0.7179   -1.2111    0.0000 C   0  0  0  0  0  0  0  0  0  0  0  0
    0.1659   -0.5980    0.0000 C   0  0  0  0  0  0  0  0  0  0  0  0
   -0.6411   -0.7695    0.0000 O   0  0  0  0  0  0  0  0  0  0  0  0
    0.4630   -1.9957    0.0000 C   0  0  0  0  0  0  0  0  0  0  0  0
    0.9479   -2.6631    0.0000 C   0  0  0  0  0  0  0  0  0  0  0  0
    0.4630   -3.3306    0.0000 C   0  0  0  0  0  0  0  0  0  0  0  0
   -0.3216   -3.0756    0.0000 O   0  0  0  0  0  0  0  0  0  0  0  0
   -0.3216   -2.2506    0.0000 C   0  0  0  0  0  0  0  0  0  0  0  0
    3.9934    2.4750    0.0000 C   0  0  0  0  0  0  0  0  0  0  0  0
    4.4059    3.1895    0.0000 C   0  0  0  0  0  0  0  0  0  0  0  0
    4.8184    2.4750    0.0000 C   0  0  0  0  0  0  0  0  0  0  0  0
    1.8500    3.7125    0.0000 N   0  0  0  0  0  0  0  0  0  0  0  0
    1.8500    4.5375    0.0000 C   0  0  0  0  0  0  0  0  0  0  0  0
    1.4375    5.2520    0.0000 C   0  0  0  0  0  0  0  0  0  0  0  0
    2.2625    5.2520    0.0000 C   0  0  0  0  0  0  0  0  0  0  0  0
  1  2  2  0  0  0  0
  2  3  1  0  0  0  0
  3  4  1  0  0  0  0
  4  5  1  0  0  0  0
  5  6  1  0  0  0  0
  6  7  2  0  0  0  0
  7  8  1  0  0  0  0
  8  9  2  0  0  0  0
  9 10  1  0  0  0  0
  5 10  2  0  0  0  0
 10 11  1  0  0  0  0
 11 12  2  0  0  0  0
 12 13  1  0  0  0  0
  9 13  1  0  0  0  0
 13 14  1  0  0  0  0
 14 15  1  0  0  0  0
 15 16  1  0  0  0  0
 16 17  1  0  0  0  0
 15 18  1  0  0  0  0
 18 19  1  0  0  0  0
 19 20  1  0  0  0  0
 20 21  1  0  0  0  0
 21 22  1  0  0  0  0
 18 22  1  0  0  0  0
  4 23  1  0  0  0  0
 23 24  1  0  0  0  0
 24 25  1  0  0  0  0
 23 25  1  0  0  0  0
  2 26  1  0  0  0  0
 26 27  1  0  0  0  0
 27 28  1  0  0  0  0
 28 29  1  0  0  0  0
 27 29  1  0  0  0  0
M  END
>  <Catalog ID>
Z2760942310

>  <Plate_ID>
2026983-X50-03

>  <Well>
C04

>  <V, µL>
50

>  <Conc, mM>
10

>  <Formula>
C20H28N6O3

>  <MW>
400.4747

>  <Purity>
92.19

>  <PO>
5A-64168

>  <MW_salt>
0

>  <Stereochem.data>
Diastereomeric mixture

>  <Geometric.isomer>
None

>  <Chemical name>
N-cyclopropyl-2-[cyclopropyl({9-[3-hydroxy-2-(oxolan-3-yl)propyl]-9H-purin-6-yl})amino]acetamide

>  <ClogP>
-0,252

>  <logS>
-2,463

>  <HBD>
2

>  <HBA>
7

>  <TPSA>
105,4

>  <RotBonds>
9

$$$$

  Mrv1925 04172511352D          

 27 29  0  0  0  0            999 V2000
    2.5645    3.3000    0.0000 C   0  0  0  0  0  0  0  0  0  0  0  0
    2.5645    2.4750    0.0000 C   0  0  0  0  0  0  0  0  0  0  0  0
    3.2789    2.0625    0.0000 N   0  0  0  0  0  0  0  0  0  0  0  0
    3.2789    1.2375    0.0000 C   0  0  0  0  0  0  0  0  0  0  0  0
    3.9934    0.8250    0.0000 N   0  0  0  0  0  0  0  0  0  0  0  0
    3.9934    0.0000    0.0000 C   0  0  0  0  0  0  0  0  0  0  0  0
    3.2789   -0.4125    0.0000 N   0  0  0  0  0  0  0  0  0  0  0  0
    2.5645    0.0000    0.0000 C   0  0  0  0  0  0  0  0  0  0  0  0
    2.5645    0.8250    0.0000 C   0  0  0  0  0  0  0  0  0  0  0  0
    1.7798    1.0799    0.0000 N   0  0  0  0  0  0  0  0  0  0  0  0
    1.2949    0.4125    0.0000 C   0  0  0  0  0  0  0  0  0  0  0  0
    1.7798   -0.2549    0.0000 N   0  0  0  0  0  0  0  0  0  0  0  0
    1.5249   -1.0396    0.0000 C   0  0  0  0  0  0  0  0  0  0  0  0
    0.7179   -1.2111    0.0000 C   0  0  0  0  0  0  0  0  0  0  0  0
    0.6317   -0.3906    0.0000 O   0  0  0  0  0  0  0  0  0  0  0  0
    0.9729   -1.9957    0.0000 C   0  0  0  0  0  0  0  0  0  0  0  0
    0.3054   -2.4806    0.0000 C   0  0  0  0  0  0  0  0  0  0  0  0
   -0.3620   -1.9957    0.0000 O   0  0  0  0  0  0  0  0  0  0  0  0
   -0.1071   -1.2111    0.0000 C   0  0  0  0  0  0  0  0  0  0  0  0
    3.9934    2.4750    0.0000 C   0  0  0  0  0  0  0  0  0  0  0  0
    4.7079    2.0625    0.0000 C   0  0  0  0  0  0  0  0  0  0  0  0
    3.9934    3.3000    0.0000 C   0  0  0  0  0  0  0  0  0  0  0  0
    4.7079    3.7125    0.0000 S   0  0  0  0  0  0  0  0  0  0  0  0
    5.1204    2.9980    0.0000 O   0  0  0  0  0  0  0  0  0  0  0  0
    4.2954    4.4270    0.0000 O   0  0  0  0  0  0  0  0  0  0  0  0
    5.4223    4.1250    0.0000 C   0  0  0  0  0  0  0  0  0  0  0  0
    5.4223    4.9500    0.0000 C   0  0  0  0  0  0  0  0  0  0  0  0
  1  2  1  0  0  0  0
  2  3  1  0  0  0  0
  3  4  1  0  0  0  0
  4  5  1  0  0  0  0
  5  6  2  0  0  0  0
  6  7  1  0  0  0  0
  7  8  2  0  0  0  0
  8  9  1  0  0  0  0
  4  9  2  0  0  0  0
  9 10  1  0  0  0  0
 10 11  2  0  0  0  0
 11 12  1  0  0  0  0
  8 12  1  0  0  0  0
 12 13  1  0  0  0  0
 13 14  1  0  0  0  0
 14 15  1  0  0  0  0
 14 16  1  0  0  0  0
 16 17  1  0  0  0  0
 17 18  1  0  0  0  0
 18 19  1  0  0  0  0
 14 19  1  0  0  0  0
  3 20  1  0  0  0  0
 20 21  1  0  0  0  0
 20 22  1  0  0  0  0
 22 23  1  0  0  0  0
 23 24  2  0  0  0  0
 23 25  2  0  0  0  0
 23 26  1  0  0  0  0
 26 27  1  0  0  0  0
M  END
>  <Catalog ID>
Z2760947351

>  <Plate_ID>
2026983-X50-03

>  <Well>
D04

>  <V, µL>
50

>  <Conc, mM>
10

>  <Formula>
C17H27N5O4S

>  <MW>
397.4924

>  <Purity>
100

>  <PO>
5A-64168

>  <MW_salt>
0

>  <Stereochem.data>
Diastereomeric mixture

>  <Geometric.isomer>
None

>  <Chemical name>
3-[(6-{[1-(ethanesulfonyl)propan-2-yl](ethyl)amino}-9H-purin-9-yl)methyl]oxolan-3-ol

>  <ClogP>
-0,095

>  <logS>
-3,034

>  <HBD>
1

>  <HBA>
8

>  <TPSA>
110,44

>  <RotBonds>
8

$$$$

  Mrv1925 04172511352D          

 29 33  0  0  0  0            999 V2000
    0.2055    8.2705    0.0000 O   0  0  0  0  0  0  0  0  0  0  0  0
    0.5410    7.5168    0.0000 C   0  0  0  0  0  0  0  0  0  0  0  0
    1.3480    7.3453    0.0000 C   0  0  0  0  0  0  0  0  0  0  0  0
    1.4342    6.5248    0.0000 C   0  0  0  0  0  0  0  0  0  0  0  0
    0.6806    6.1893    0.0000 C   0  0  0  0  0  0  0  0  0  0  0  0
    0.1285    6.8024    0.0000 N   0  0  0  0  0  0  0  0  0  0  0  0
    2.1487    6.9373    0.0000 C   0  0  0  0  0  0  0  0  0  0  0  0
    2.8632    6.5248    0.0000 C   0  0  0  0  0  0  0  0  0  0  0  0
    2.8632    5.6998    0.0000 C   0  0  0  0  0  0  0  0  0  0  0  0
    2.1487    5.2873    0.0000 N   0  0  0  0  0  0  0  0  0  0  0  0
    1.4342    5.6998    0.0000 C   0  0  0  0  0  0  0  0  0  0  0  0
    2.1487    4.4623    0.0000 C   0  0  0  0  0  0  0  0  0  0  0  0
    2.8632    4.0498    0.0000 N   0  0  0  0  0  0  0  0  0  0  0  0
    2.8632    3.2248    0.0000 C   0  0  0  0  0  0  0  0  0  0  0  0
    2.1487    2.8123    0.0000 N   0  0  0  0  0  0  0  0  0  0  0  0
    1.4342    3.2248    0.0000 C   0  0  0  0  0  0  0  0  0  0  0  0
    1.4342    4.0498    0.0000 C   0  0  0  0  0  0  0  0  0  0  0  0
    0.6496    4.3048    0.0000 N   0  0  0  0  0  0  0  0  0  0  0  0
    0.1647    3.6373    0.0000 C   0  0  0  0  0  0  0  0  0  0  0  0
    0.6496    2.9699    0.0000 N   0  0  0  0  0  0  0  0  0  0  0  0
    0.3947    2.1853    0.0000 C   0  0  0  0  0  0  0  0  0  0  0  0
    0.9467    1.5722    0.0000 C   0  0  0  0  0  0  0  0  0  0  0  0
    1.7537    1.7437    0.0000 C   0  0  0  0  0  0  0  0  0  0  0  0
    2.3057    1.1306    0.0000 O   0  0  0  0  0  0  0  0  0  0  0  0
    0.6918    0.7876    0.0000 C   0  0  0  0  0  0  0  0  0  0  0  0
    1.1767    0.1201    0.0000 C   0  0  0  0  0  0  0  0  0  0  0  0
    0.6918   -0.5473    0.0000 C   0  0  0  0  0  0  0  0  0  0  0  0
   -0.0929   -0.2924    0.0000 O   0  0  0  0  0  0  0  0  0  0  0  0
   -0.0929    0.5326    0.0000 C   0  0  0  0  0  0  0  0  0  0  0  0
  1  2  2  0  0  0  0
  2  3  1  0  0  0  0
  3  4  1  0  0  0  0
  4  5  1  0  0  0  0
  5  6  1  0  0  0  0
  2  6  1  0  0  0  0
  4  7  1  0  0  0  0
  7  8  1  0  0  0  0
  8  9  1  0  0  0  0
  9 10  1  0  0  0  0
 10 11  1  0  0  0  0
  4 11  1  0  0  0  0
 10 12  1  0  0  0  0
 12 13  1  0  0  0  0
 13 14  2  0  0  0  0
 14 15  1  0  0  0  0
 15 16  2  0  0  0  0
 16 17  1  0  0  0  0
 12 17  2  0  0  0  0
 17 18  1  0  0  0  0
 18 19  2  0  0  0  0
 19 20  1  0  0  0  0
 16 20  1  0  0  0  0
 20 21  1  0  0  0  0
 21 22  1  0  0  0  0
 22 23  1  0  0  0  0
 23 24  1  0  0  0  0
 22 25  1  0  0  0  0
 25 26  1  0  0  0  0
 26 27  1  0  0  0  0
 27 28  1  0  0  0  0
 28 29  1  0  0  0  0
 25 29  1  0  0  0  0
M  END
>  <Catalog ID>
Z2760950320

>  <Plate_ID>
2026983-X50-03

>  <Well>
E04

>  <V, µL>
50

>  <Conc, mM>
10

>  <Formula>
C20H28N6O3

>  <MW>
400.4747

>  <Purity>
100

>  <PO>
5A-64168

>  <MW_salt>
0

>  <Stereochem.data>
Diastereomeric mixture

>  <Geometric.isomer>
None

>  <Chemical name>
7-{9-[3-hydroxy-2-(oxolan-3-yl)propyl]-9H-purin-6-yl}-2,7-diazaspiro[4.5]decan-3-one

>  <ClogP>
-1,168

>  <logS>
-1,765

>  <HBD>
2

>  <HBA>
7

>  <TPSA>
105,4

>  <RotBonds>
5

$$$$

  Mrv1925 04172511352D          

 27 31  0  0  0  0            999 V2000
    2.1231    4.2277    0.0000 C   0  0  0  0  0  0  0  0  0  0  0  0
    2.8664    3.8698    0.0000 C   0  0  0  0  0  0  0  0  0  0  0  0
    3.0500    4.6741    0.0000 C   0  0  0  0  0  0  0  0  0  0  0  0
    2.3520    3.2248    0.0000 C   0  0  0  0  0  0  0  0  0  0  0  0
    2.5356    2.4205    0.0000 C   0  0  0  0  0  0  0  0  0  0  0  0
    3.4713    2.6138    0.0000 C   0  0  0  0  0  0  0  0  0  0  0  0
    4.2058    3.2248    0.0000 C   0  0  0  0  0  0  0  0  0  0  0  0
    5.0101    3.4083    0.0000 C   0  0  0  0  0  0  0  0  0  0  0  0
    4.0222    2.4205    0.0000 C   0  0  0  0  0  0  0  0  0  0  0  0
    3.2789    2.0625    0.0000 N   0  0  0  0  0  0  0  0  0  0  0  0
    3.2789    1.2375    0.0000 C   0  0  0  0  0  0  0  0  0  0  0  0
    3.9934    0.8250    0.0000 N   0  0  0  0  0  0  0  0  0  0  0  0
    3.9934    0.0000    0.0000 C   0  0  0  0  0  0  0  0  0  0  0  0
    3.2789   -0.4125    0.0000 N   0  0  0  0  0  0  0  0  0  0  0  0
    2.5645    0.0000    0.0000 C   0  0  0  0  0  0  0  0  0  0  0  0
    2.5645    0.8250    0.0000 C   0  0  0  0  0  0  0  0  0  0  0  0
    1.7798    1.0799    0.0000 N   0  0  0  0  0  0  0  0  0  0  0  0
    1.2949    0.4125    0.0000 C   0  0  0  0  0  0  0  0  0  0  0  0
    1.7798   -0.2549    0.0000 N   0  0  0  0  0  0  0  0  0  0  0  0
    1.5249   -1.0396    0.0000 C   0  0  0  0  0  0  0  0  0  0  0  0
    0.7179   -1.2111    0.0000 C   0  0  0  0  0  0  0  0  0  0  0  0
    0.5464   -0.4041    0.0000 C   0  0  0  0  0  0  0  0  0  0  0  0
   -0.2382   -0.1492    0.0000 O   0  0  0  0  0  0  0  0  0  0  0  0
    0.8895   -2.0181    0.0000 C   0  0  0  0  0  0  0  0  0  0  0  0
    0.0825   -2.1896    0.0000 O   0  0  0  0  0  0  0  0  0  0  0  0
   -0.0890   -1.3826    0.0000 C   0  0  0  0  0  0  0  0  0  0  0  0
    3.6914    3.8698    0.0000 C   0  0  0  0  0  0  0  0  0  0  0  0
  1  2  1  0  0  0  0
  2  3  1  0  0  0  0
  2  4  1  0  0  0  0
  4  5  1  0  0  0  0
  5  6  1  0  0  0  0
  6  7  1  0  0  0  0
  7  8  1  0  0  0  0
  7  9  1  0  0  0  0
  9 10  1  0  0  0  0
  5 10  1  0  0  0  0
 10 11  1  0  0  0  0
 11 12  1  0  0  0  0
 12 13  2  0  0  0  0
 13 14  1  0  0  0  0
 14 15  2  0  0  0  0
 15 16  1  0  0  0  0
 11 16  2  0  0  0  0
 16 17  1  0  0  0  0
 17 18  2  0  0  0  0
 18 19  1  0  0  0  0
 15 19  1  0  0  0  0
 19 20  1  0  0  0  0
 20 21  1  0  0  0  0
 21 22  1  0  0  0  0
 22 23  1  0  0  0  0
 21 24  1  0  0  0  0
 24 25  1  0  0  0  0
 25 26  1  0  0  0  0
 21 26  1  0  0  0  0
  7 27  1  0  0  0  0
  2 27  1  0  0  0  0
M  END
>  <Catalog ID>
Z2760938437

>  <Plate_ID>
2026983-X50-03

>  <Well>
F04

>  <V, µL>
50

>  <Conc, mM>
10

>  <Formula>
C20H29N5O2

>  <MW>
371.4766

>  <Purity>
90.33

>  <PO>
5A-64168

>  <MW_salt>
0

>  <Stereochem.data>
Diastereomeric mixture

>  <Geometric.isomer>
Unequal mixture of geometric isomers

>  <Chemical name>
{3-[(6-{1,3,3-trimethyl-6-azabicyclo[3.2.1]octan-6-yl}-9H-purin-9-yl)methyl]oxetan-3-yl}methanol

>  <ClogP>
1,101

>  <logS>
-3,454

>  <HBD>
1

>  <HBA>
6

>  <TPSA>
76,3

>  <RotBonds>
4

$$$$

  Mrv1925 04172511352D          

 27 31  0  0  0  0            999 V2000
    2.4539    5.4266    0.0000 O   0  0  0  0  0  0  0  0  0  0  0  0
    2.4539    4.6016    0.0000 C   0  0  0  0  0  0  0  0  0  0  0  0
    3.1214    4.1167    0.0000 C   0  0  0  0  0  0  0  0  0  0  0  0
    2.8664    3.3320    0.0000 C   0  0  0  0  0  0  0  0  0  0  0  0
    3.6914    3.3320    0.0000 C   0  0  0  0  0  0  0  0  0  0  0  0
    3.9464    2.5474    0.0000 C   0  0  0  0  0  0  0  0  0  0  0  0
    3.2789    2.0625    0.0000 N   0  0  0  0  0  0  0  0  0  0  0  0
    2.6115    2.5474    0.0000 C   0  0  0  0  0  0  0  0  0  0  0  0
    3.2789    1.2375    0.0000 C   0  0  0  0  0  0  0  0  0  0  0  0
    3.9934    0.8250    0.0000 N   0  0  0  0  0  0  0  0  0  0  0  0
    3.9934    0.0000    0.0000 C   0  0  0  0  0  0  0  0  0  0  0  0
    3.2789   -0.4125    0.0000 N   0  0  0  0  0  0  0  0  0  0  0  0
    2.5645    0.0000    0.0000 C   0  0  0  0  0  0  0  0  0  0  0  0
    2.5645    0.8250    0.0000 C   0  0  0  0  0  0  0  0  0  0  0  0
    1.7798    1.0799    0.0000 N   0  0  0  0  0  0  0  0  0  0  0  0
    1.2949    0.4125    0.0000 C   0  0  0  0  0  0  0  0  0  0  0  0
    1.7798   -0.2549    0.0000 N   0  0  0  0  0  0  0  0  0  0  0  0
    1.5249   -1.0396    0.0000 C   0  0  0  0  0  0  0  0  0  0  0  0
    1.8994   -1.7746    0.0000 C   0  0  0  0  0  0  0  0  0  0  0  0
    1.1644   -2.1492    0.0000 C   0  0  0  0  0  0  0  0  0  0  0  0
    1.5389   -2.8843    0.0000 C   0  0  0  0  0  0  0  0  0  0  0  0
    2.3628   -2.9274    0.0000 O   0  0  0  0  0  0  0  0  0  0  0  0
    0.4293   -2.5237    0.0000 C   0  0  0  0  0  0  0  0  0  0  0  0
   -0.2626   -2.0744    0.0000 O   0  0  0  0  0  0  0  0  0  0  0  0
    0.7898   -1.4141    0.0000 C   0  0  0  0  0  0  0  0  0  0  0  0
    2.0414    3.3320    0.0000 C   0  0  0  0  0  0  0  0  0  0  0  0
    1.7865    4.1167    0.0000 N   0  0  0  0  0  0  0  0  0  0  0  0
  1  2  2  0  0  0  0
  2  3  1  0  0  0  0
  3  4  1  0  0  0  0
  4  5  1  0  0  0  0
  5  6  1  0  0  0  0
  6  7  1  0  0  0  0
  7  8  1  0  0  0  0
  4  8  1  0  0  0  0
  7  9  1  0  0  0  0
  9 10  1  0  0  0  0
 10 11  2  0  0  0  0
 11 12  1  0  0  0  0
 12 13  2  0  0  0  0
 13 14  1  0  0  0  0
  9 14  2  0  0  0  0
 14 15  1  0  0  0  0
 15 16  2  0  0  0  0
 16 17  1  0  0  0  0
 13 17  1  0  0  0  0
 17 18  1  0  0  0  0
 18 19  1  0  0  0  0
 19 20  1  0  0  0  0
 20 21  1  0  0  0  0
 21 22  1  0  0  0  0
 20 23  1  0  0  0  0
 23 24  1  0  0  0  0
 20 25  1  0  0  0  0
 18 25  1  0  0  0  0
  4 26  1  0  0  0  0
 26 27  1  0  0  0  0
  2 27  1  0  0  0  0
M  END
>  <Catalog ID>
Z2760966931

>  <Plate_ID>
2026983-X50-03

>  <Well>
G04

>  <V, µL>
50

>  <Conc, mM>
10

>  <Formula>
C18H24N6O3

>  <MW>
372.4216

>  <Purity>
95.29

>  <PO>
5A-64168

>  <MW_salt>
0

>  <Stereochem.data>
Racemic or presumed racemic or meso

>  <Geometric.isomer>
None

>  <Chemical name>
7-{9-[3,3-bis(hydroxymethyl)cyclobutyl]-9H-purin-6-yl}-2,7-diazaspiro[4.4]nonan-3-one

>  <ClogP>
-2,266

>  <logS>
-0,637

>  <HBD>
3

>  <HBA>
7

>  <TPSA>
116,4

>  <RotBonds>
4

$$$$

  Mrv1925 04172511352D          

 29 32  0  0  0  0            999 V2000
    2.5645    3.3000    0.0000 C   0  0  0  0  0  0  0  0  0  0  0  0
    2.5645    2.4750    0.0000 C   0  0  0  0  0  0  0  0  0  0  0  0
    3.2789    2.0625    0.0000 N   0  0  0  0  0  0  0  0  0  0  0  0
    3.2789    1.2375    0.0000 C   0  0  0  0  0  0  0  0  0  0  0  0
    3.9934    0.8250    0.0000 N   0  0  0  0  0  0  0  0  0  0  0  0
    3.9934    0.0000    0.0000 C   0  0  0  0  0  0  0  0  0  0  0  0
    3.2789   -0.4125    0.0000 N   0  0  0  0  0  0  0  0  0  0  0  0
    2.5645    0.0000    0.0000 C   0  0  0  0  0  0  0  0  0  0  0  0
    2.5645    0.8250    0.0000 C   0  0  0  0  0  0  0  0  0  0  0  0
    1.7798    1.0799    0.0000 N   0  0  0  0  0  0  0  0  0  0  0  0
    1.2949    0.4125    0.0000 C   0  0  0  0  0  0  0  0  0  0  0  0
    1.7798   -0.2549    0.0000 N   0  0  0  0  0  0  0  0  0  0  0  0
    1.5249   -1.0396    0.0000 C   0  0  0  0  0  0  0  0  0  0  0  0
    0.7179   -1.2111    0.0000 C   0  0  0  0  0  0  0  0  0  0  0  0
    0.6891   -0.3866    0.0000 C   0  0  0  0  0  0  0  0  0  0  0  0
   -0.0393    0.0007    0.0000 O   0  0  0  0  0  0  0  0  0  0  0  0
    1.0270   -1.9760    0.0000 C   0  0  0  0  0  0  0  0  0  0  0  0
    0.5191   -2.6261    0.0000 C   0  0  0  0  0  0  0  0  0  0  0  0
   -0.2979   -2.5113    0.0000 O   0  0  0  0  0  0  0  0  0  0  0  0
   -0.6070   -1.7464    0.0000 C   0  0  0  0  0  0  0  0  0  0  0  0
   -0.0990   -1.0963    0.0000 C   0  0  0  0  0  0  0  0  0  0  0  0
    3.9934    2.4750    0.0000 C   0  0  0  0  0  0  0  0  0  0  0  0
    3.9934    3.3000    0.0000 C   0  0  0  0  0  0  0  0  0  0  0  0
    4.7079    3.7125    0.0000 C   0  0  0  0  0  0  0  0  0  0  0  0
    5.4223    3.3000    0.0000 O   0  0  0  0  0  0  0  0  0  0  0  0
    5.4223    2.4750    0.0000 C   0  0  0  0  0  0  0  0  0  0  0  0
    6.2348    2.6183    0.0000 C   0  0  0  0  0  0  0  0  0  0  0  0
    5.7045    1.6998    0.0000 C   0  0  0  0  0  0  0  0  0  0  0  0
    4.7079    2.0625    0.0000 C   0  0  0  0  0  0  0  0  0  0  0  0
  1  2  1  0  0  0  0
  2  3  1  0  0  0  0
  3  4  1  0  0  0  0
  4  5  1  0  0  0  0
  5  6  2  0  0  0  0
  6  7  1  0  0  0  0
  7  8  2  0  0  0  0
  8  9  1  0  0  0  0
  4  9  2  0  0  0  0
  9 10  1  0  0  0  0
 10 11  2  0  0  0  0
 11 12  1  0  0  0  0
  8 12  1  0  0  0  0
 12 13  1  0  0  0  0
 13 14  1  0  0  0  0
 14 15  1  0  0  0  0
 15 16  1  0  0  0  0
 14 17  1  0  0  0  0
 17 18  1  0  0  0  0
 18 19  1  0  0  0  0
 19 20  1  0  0  0  0
 20 21  1  0  0  0  0
 14 21  1  0  0  0  0
  3 22  1  0  0  0  0
 22 23  1  0  0  0  0
 23 24  1  0  0  0  0
 24 25  1  0  0  0  0
 25 26  1  0  0  0  0
 26 27  1  0  0  0  0
 26 28  1  0  0  0  0
 26 29  1  0  0  0  0
 22 29  1  0  0  0  0
M  END
>  <Catalog ID>
Z2760973376

>  <Plate_ID>
2026983-X50-03

>  <Well>
H04

>  <V, µL>
50

>  <Conc, mM>
10

>  <Formula>
C21H33N5O3

>  <MW>
403.5184

>  <Purity>
95.85

>  <PO>
5A-64168

>  <MW_salt>
0

>  <Stereochem.data>
Racemic or presumed racemic or meso

>  <Geometric.isomer>
None

>  <Chemical name>
[4-({6-[(2,2-dimethyloxan-4-yl)(ethyl)amino]-9H-purin-9-yl}methyl)oxan-4-yl]methanol

>  <ClogP>
0,874

>  <logS>
-2,752

>  <HBD>
1

>  <HBA>
7

>  <TPSA>
85,53

>  <RotBonds>
6

$$$$

  Mrv1925 04172511352D          

 27 30  0  0  0  0            999 V2000
    3.8623    3.8126    0.0000 C   0  0  0  0  0  0  0  0  0  0  0  0
    3.2789    3.2292    0.0000 C   0  0  0  0  0  0  0  0  0  0  0  0
    2.6956    3.8126    0.0000 C   0  0  0  0  0  0  0  0  0  0  0  0
    2.9091    4.6095    0.0000 C   0  0  0  0  0  0  0  0  0  0  0  0
    3.1226    5.4064    0.0000 F   0  0  0  0  0  0  0  0  0  0  0  0
    2.1122    4.8230    0.0000 F   0  0  0  0  0  0  0  0  0  0  0  0
    3.7060    4.3960    0.0000 F   0  0  0  0  0  0  0  0  0  0  0  0
    3.8623    2.6459    0.0000 C   0  0  0  0  0  0  0  0  0  0  0  0
    3.2789    2.0625    0.0000 N   0  0  0  0  0  0  0  0  0  0  0  0
    2.6956    2.6459    0.0000 C   0  0  0  0  0  0  0  0  0  0  0  0
    3.2789    1.2375    0.0000 C   0  0  0  0  0  0  0  0  0  0  0  0
    3.9934    0.8250    0.0000 N   0  0  0  0  0  0  0  0  0  0  0  0
    3.9934    0.0000    0.0000 C   0  0  0  0  0  0  0  0  0  0  0  0
    3.2789   -0.4125    0.0000 N   0  0  0  0  0  0  0  0  0  0  0  0
    2.5645    0.0000    0.0000 C   0  0  0  0  0  0  0  0  0  0  0  0
    2.5645    0.8250    0.0000 C   0  0  0  0  0  0  0  0  0  0  0  0
    1.7798    1.0799    0.0000 N   0  0  0  0  0  0  0  0  0  0  0  0
    1.2949    0.4125    0.0000 C   0  0  0  0  0  0  0  0  0  0  0  0
    1.7798   -0.2549    0.0000 N   0  0  0  0  0  0  0  0  0  0  0  0
    1.5249   -1.0396    0.0000 C   0  0  0  0  0  0  0  0  0  0  0  0
    2.0769   -1.6527    0.0000 C   0  0  0  0  0  0  0  0  0  0  0  0
    1.3773   -2.0898    0.0000 O   0  0  0  0  0  0  0  0  0  0  0  0
    2.5848   -1.0025    0.0000 C   0  0  0  0  0  0  0  0  0  0  0  0
    3.4018   -1.1174    0.0000 C   0  0  0  0  0  0  0  0  0  0  0  0
    3.7109   -1.8823    0.0000 O   0  0  0  0  0  0  0  0  0  0  0  0
    3.2030   -2.5324    0.0000 C   0  0  0  0  0  0  0  0  0  0  0  0
    2.3860   -2.4176    0.0000 C   0  0  0  0  0  0  0  0  0  0  0  0
  1  2  1  0  0  0  0
  2  3  1  0  0  0  0
  3  4  1  0  0  0  0
  4  5  1  0  0  0  0
  4  6  1  0  0  0  0
  4  7  1  0  0  0  0
  2  8  1  0  0  0  0
  8  9  1  0  0  0  0
  9 10  1  0  0  0  0
  2 10  1  0  0  0  0
  9 11  1  0  0  0  0
 11 12  1  0  0  0  0
 12 13  2  0  0  0  0
 13 14  1  0  0  0  0
 14 15  2  0  0  0  0
 15 16  1  0  0  0  0
 11 16  2  0  0  0  0
 16 17  1  0  0  0  0
 17 18  2  0  0  0  0
 18 19  1  0  0  0  0
 15 19  1  0  0  0  0
 19 20  1  0  0  0  0
 20 21  1  0  0  0  0
 21 22  1  0  0  0  0
 21 23  1  0  0  0  0
 23 24  1  0  0  0  0
 24 25  1  0  0  0  0
 25 26  1  0  0  0  0
 26 27  1  0  0  0  0
 21 27  1  0  0  0  0
M  END
>  <Catalog ID>
Z2760975203

>  <Plate_ID>
2026983-X50-03

>  <Well>
A05

>  <V, µL>
50

>  <Conc, mM>
10

>  <Formula>
C17H22F3N5O2

>  <MW>
385.3841

>  <Purity>
100

>  <PO>
5A-64168

>  <MW_salt>
0

>  <Stereochem.data>
Achiral

>  <Geometric.isomer>
None

>  <Chemical name>
4-({6-[3-methyl-3-(2,2,2-trifluoroethyl)azetidin-1-yl]-9H-purin-9-yl}methyl)oxan-4-ol

>  <ClogP>
0,061

>  <logS>
-4,154

>  <HBD>
1

>  <HBA>
6

>  <TPSA>
76,3

>  <RotBonds>
5

$$$$

  Mrv1925 04172511352D          

 29 32  0  0  0  0            999 V2000
    6.8513    4.9500    0.0000 C   0  0  0  0  0  0  0  0  0  0  0  0
    6.1368    4.5375    0.0000 C   0  0  0  0  0  0  0  0  0  0  0  0
    5.4223    4.9500    0.0000 O   0  0  0  0  0  0  0  0  0  0  0  0
    6.1368    3.7125    0.0000 N   0  0  0  0  0  0  0  0  0  0  0  0
    5.4223    3.3000    0.0000 C   0  0  0  0  0  0  0  0  0  0  0  0
    5.4223    2.4750    0.0000 C   0  0  0  0  0  0  0  0  0  0  0  0
    4.7079    2.0625    0.0000 C   0  0  0  0  0  0  0  0  0  0  0  0
    3.9934    2.4750    0.0000 C   0  0  0  0  0  0  0  0  0  0  0  0
    3.9934    3.3000    0.0000 C   0  0  0  0  0  0  0  0  0  0  0  0
    4.7079    3.7125    0.0000 C   0  0  0  0  0  0  0  0  0  0  0  0
    3.2789    2.0625    0.0000 N   0  0  0  0  0  0  0  0  0  0  0  0
    2.5645    2.4750    0.0000 C   0  0  0  0  0  0  0  0  0  0  0  0
    3.2789    1.2375    0.0000 C   0  0  0  0  0  0  0  0  0  0  0  0
    3.9934    0.8250    0.0000 N   0  0  0  0  0  0  0  0  0  0  0  0
    3.9934    0.0000    0.0000 C   0  0  0  0  0  0  0  0  0  0  0  0
    3.2789   -0.4125    0.0000 N   0  0  0  0  0  0  0  0  0  0  0  0
    2.5645    0.0000    0.0000 C   0  0  0  0  0  0  0  0  0  0  0  0
    2.5645    0.8250    0.0000 C   0  0  0  0  0  0  0  0  0  0  0  0
    1.7798    1.0799    0.0000 N   0  0  0  0  0  0  0  0  0  0  0  0
    1.2949    0.4125    0.0000 C   0  0  0  0  0  0  0  0  0  0  0  0
    1.7798   -0.2549    0.0000 N   0  0  0  0  0  0  0  0  0  0  0  0
    1.5249   -1.0396    0.0000 C   0  0  0  0  0  0  0  0  0  0  0  0
    1.8994   -1.7746    0.0000 C   0  0  0  0  0  0  0  0  0  0  0  0
    1.1644   -2.1492    0.0000 C   0  0  0  0  0  0  0  0  0  0  0  0
    1.5389   -2.8843    0.0000 C   0  0  0  0  0  0  0  0  0  0  0  0
    2.3628   -2.9274    0.0000 O   0  0  0  0  0  0  0  0  0  0  0  0
    0.4293   -2.5237    0.0000 C   0  0  0  0  0  0  0  0  0  0  0  0
   -0.2626   -2.0744    0.0000 O   0  0  0  0  0  0  0  0  0  0  0  0
    0.7898   -1.4141    0.0000 C   0  0  0  0  0  0  0  0  0  0  0  0
  1  2  1  0  0  0  0
  2  3  2  0  0  0  0
  2  4  1  0  0  0  0
  4  5  1  0  0  0  0
  5  6  1  0  0  0  0
  6  7  1  0  0  0  0
  7  8  1  0  0  0  0
  8  9  1  0  0  0  0
  9 10  1  0  0  0  0
  5 10  1  0  0  0  0
  8 11  1  0  0  0  0
 11 12  1  0  0  0  0
 11 13  1  0  0  0  0
 13 14  1  0  0  0  0
 14 15  2  0  0  0  0
 15 16  1  0  0  0  0
 16 17  2  0  0  0  0
 17 18  1  0  0  0  0
 13 18  2  0  0  0  0
 18 19  1  0  0  0  0
 19 20  2  0  0  0  0
 20 21  1  0  0  0  0
 17 21  1  0  0  0  0
 21 22  1  0  0  0  0
 22 23  1  0  0  0  0
 23 24  1  0  0  0  0
 24 25  1  0  0  0  0
 25 26  1  0  0  0  0
 24 27  1  0  0  0  0
 27 28  1  0  0  0  0
 24 29  1  0  0  0  0
 22 29  1  0  0  0  0
M  END
>  <Catalog ID>
Z2760961535

>  <Plate_ID>
2026983-X50-03

>  <Well>
B05

>  <V, µL>
50

>  <Conc, mM>
10

>  <Formula>
C20H30N6O3

>  <MW>
402.4906

>  <Purity>
100

>  <PO>
5A-64168

>  <MW_salt>
0

>  <Stereochem.data>
Diastereomeric mixture

>  <Geometric.isomer>
Unequal mixture of geometric isomers

>  <Chemical name>
N-[4-({9-[3,3-bis(hydroxymethyl)cyclobutyl]-9H-purin-6-yl}(methyl)amino)cyclohexyl]acetamide

>  <ClogP>
-1,254

>  <logS>
-1,926

>  <HBD>
3

>  <HBA>
7

>  <TPSA>
116,4

>  <RotBonds>
6

$$$$

  Mrv1925 04172511352D          

 29 33  0  0  0  0            999 V2000
    1.9437   -2.1130    0.0000 O   0  0  0  0  0  0  0  0  0  0  0  0
    1.4358   -2.7631    0.0000 C   0  0  0  0  0  0  0  0  0  0  0  0
    0.8838   -2.1500    0.0000 C   0  0  0  0  0  0  0  0  0  0  0  0
    1.1387   -1.3654    0.0000 N   0  0  0  0  0  0  0  0  0  0  0  0
    0.6538   -0.6979    0.0000 C   0  0  0  0  0  0  0  0  0  0  0  0
    1.1387   -0.0305    0.0000 N   0  0  0  0  0  0  0  0  0  0  0  0
    1.9233   -0.2854    0.0000 C   0  0  0  0  0  0  0  0  0  0  0  0
    2.6378    0.1271    0.0000 C   0  0  0  0  0  0  0  0  0  0  0  0
    3.3523   -0.2854    0.0000 N   0  0  0  0  0  0  0  0  0  0  0  0
    3.3523   -1.1104    0.0000 C   0  0  0  0  0  0  0  0  0  0  0  0
    2.6378   -1.5229    0.0000 N   0  0  0  0  0  0  0  0  0  0  0  0
    1.9233   -1.1104    0.0000 C   0  0  0  0  0  0  0  0  0  0  0  0
    2.6378    0.9521    0.0000 N   0  0  0  0  0  0  0  0  0  0  0  0
    1.9233    1.3646    0.0000 C   0  0  0  0  0  0  0  0  0  0  0  0
    1.9233    2.1896    0.0000 C   0  0  0  0  0  0  0  0  0  0  0  0
    2.6378    2.6021    0.0000 N   0  0  0  0  0  0  0  0  0  0  0  0
    2.6378    3.4271    0.0000 C   0  0  0  0  0  0  0  0  0  0  0  0
    3.3523    3.8396    0.0000 C   0  0  0  0  0  0  0  0  0  0  0  0
    3.4385    4.6600    0.0000 C   0  0  0  0  0  0  0  0  0  0  0  0
    4.2455    4.8316    0.0000 C   0  0  0  0  0  0  0  0  0  0  0  0
    4.6580    4.1171    0.0000 O   0  0  0  0  0  0  0  0  0  0  0  0
    4.1060    3.5040    0.0000 C   0  0  0  0  0  0  0  0  0  0  0  0
    3.3523    2.1896    0.0000 C   0  0  0  0  0  0  0  0  0  0  0  0
    3.3523    1.3646    0.0000 C   0  0  0  0  0  0  0  0  0  0  0  0
    2.1642   -3.1504    0.0000 C   0  0  0  0  0  0  0  0  0  0  0  0
    2.1930   -3.9749    0.0000 C   0  0  0  0  0  0  0  0  0  0  0  0
    1.4934   -4.4121    0.0000 O   0  0  0  0  0  0  0  0  0  0  0  0
    0.7650   -4.0248    0.0000 C   0  0  0  0  0  0  0  0  0  0  0  0
    0.7362   -3.2003    0.0000 C   0  0  0  0  0  0  0  0  0  0  0  0
  1  2  1  0  0  0  0
  2  3  1  0  0  0  0
  3  4  1  0  0  0  0
  4  5  1  0  0  0  0
  5  6  2  0  0  0  0
  6  7  1  0  0  0  0
  7  8  2  0  0  0  0
  8  9  1  0  0  0  0
  9 10  2  0  0  0  0
 10 11  1  0  0  0  0
 11 12  2  0  0  0  0
  7 12  1  0  0  0  0
  4 12  1  0  0  0  0
  8 13  1  0  0  0  0
 13 14  1  0  0  0  0
 14 15  1  0  0  0  0
 15 16  1  0  0  0  0
 16 17  1  0  0  0  0
 17 18  1  0  0  0  0
 18 19  1  0  0  0  0
 19 20  1  0  0  0  0
 20 21  1  0  0  0  0
 21 22  1  0  0  0  0
 18 22  1  0  0  0  0
 16 23  1  0  0  0  0
 23 24  1  0  0  0  0
 13 24  1  0  0  0  0
  2 25  1  0  0  0  0
 25 26  1  0  0  0  0
 26 27  1  0  0  0  0
 27 28  1  0  0  0  0
 28 29  1  0  0  0  0
  2 29  1  0  0  0  0
M  END
>  <Catalog ID>
Z2760940404

>  <Plate_ID>
2026983-X50-03

>  <Well>
C05

>  <V, µL>
50

>  <Conc, mM>
10

>  <Formula>
C20H30N6O3

>  <MW>
402.4906

>  <Purity>
90

>  <PO>
5A-64168

>  <MW_salt>
0

>  <Stereochem.data>
Racemic or presumed racemic or meso

>  <Geometric.isomer>
None

>  <Chemical name>
4-[(6-{4-[(oxolan-3-yl)methyl]piperazin-1-yl}-9H-purin-9-yl)methyl]oxan-4-ol

>  <ClogP>
-1,17

>  <logS>
-2,164

>  <HBD>
1

>  <HBA>
8

>  <TPSA>
88,77

>  <RotBonds>
5

$$$$

  Mrv1925 04172511352D          

 27 29  0  0  0  0            999 V2000
   -1.9520   -3.6020    0.0000 C   0  0  0  0  0  0  0  0  0  0  0  0
   -1.1270   -3.6020    0.0000 C   0  0  0  0  0  0  0  0  0  0  0  0
   -0.7145   -4.3164    0.0000 O   0  0  0  0  0  0  0  0  0  0  0  0
   -0.7145   -2.8875    0.0000 N   0  0  0  0  0  0  0  0  0  0  0  0
    0.1105   -2.8875    0.0000 C   0  0  0  0  0  0  0  0  0  0  0  0
    0.5230   -2.1730    0.0000 C   0  0  0  0  0  0  0  0  0  0  0  0
    1.3480   -2.1730    0.0000 N   0  0  0  0  0  0  0  0  0  0  0  0
    1.7605   -1.4586    0.0000 C   0  0  0  0  0  0  0  0  0  0  0  0
    1.3480   -0.7441    0.0000 N   0  0  0  0  0  0  0  0  0  0  0  0
    1.7605   -0.0296    0.0000 C   0  0  0  0  0  0  0  0  0  0  0  0
    2.5855   -0.0296    0.0000 N   0  0  0  0  0  0  0  0  0  0  0  0
    2.9980   -0.7441    0.0000 C   0  0  0  0  0  0  0  0  0  0  0  0
    2.5855   -1.4586    0.0000 C   0  0  0  0  0  0  0  0  0  0  0  0
    3.1376   -2.0717    0.0000 N   0  0  0  0  0  0  0  0  0  0  0  0
    3.8912   -1.7361    0.0000 C   0  0  0  0  0  0  0  0  0  0  0  0
    3.8050   -0.9156    0.0000 N   0  0  0  0  0  0  0  0  0  0  0  0
    4.4181   -0.3636    0.0000 C   0  0  0  0  0  0  0  0  0  0  0  0
    5.2027   -0.6185    0.0000 C   0  0  0  0  0  0  0  0  0  0  0  0
    4.8672   -1.3722    0.0000 O   0  0  0  0  0  0  0  0  0  0  0  0
    5.3742    0.1885    0.0000 C   0  0  0  0  0  0  0  0  0  0  0  0
    6.1947    0.2747    0.0000 C   0  0  0  0  0  0  0  0  0  0  0  0
    6.5303   -0.4790    0.0000 O   0  0  0  0  0  0  0  0  0  0  0  0
    5.9172   -1.0310    0.0000 C   0  0  0  0  0  0  0  0  0  0  0  0
    6.0034   -1.8515    0.0000 C   0  0  0  0  0  0  0  0  0  0  0  0
    1.7605   -2.8875    0.0000 C   0  0  0  0  0  0  0  0  0  0  0  0
    2.5855   -2.8875    0.0000 C   0  0  0  0  0  0  0  0  0  0  0  0
    1.3480   -3.6020    0.0000 C   0  0  0  0  0  0  0  0  0  0  0  0
  1  2  1  0  0  0  0
  2  3  2  0  0  0  0
  2  4  1  0  0  0  0
  4  5  1  0  0  0  0
  5  6  1  0  0  0  0
  6  7  1  0  0  0  0
  7  8  1  0  0  0  0
  8  9  1  0  0  0  0
  9 10  2  0  0  0  0
 10 11  1  0  0  0  0
 11 12  2  0  0  0  0
 12 13  1  0  0  0  0
  8 13  2  0  0  0  0
 13 14  1  0  0  0  0
 14 15  2  0  0  0  0
 15 16  1  0  0  0  0
 12 16  1  0  0  0  0
 16 17  1  0  0  0  0
 17 18  1  0  0  0  0
 18 19  1  0  0  0  0
 18 20  1  0  0  0  0
 20 21  1  0  0  0  0
 21 22  1  0  0  0  0
 22 23  1  0  0  0  0
 18 23  1  0  0  0  0
 23 24  1  0  0  0  0
  7 25  1  0  0  0  0
 25 26  1  0  0  0  0
 25 27  1  0  0  0  0
M  END
>  <Catalog ID>
Z2760960997

>  <Plate_ID>
2026983-X50-03

>  <Well>
D05

>  <V, µL>
50

>  <Conc, mM>
10

>  <Formula>
C18H28N6O3

>  <MW>
376.4533

>  <Purity>
97

>  <PO>
5A-64168

>  <MW_salt>
0

>  <Stereochem.data>
Diastereomeric mixture

>  <Geometric.isomer>
Unknown

>  <Chemical name>
N-[2-({9-[(3-hydroxy-2-methyloxolan-3-yl)methyl]-9H-purin-6-yl}(propan-2-yl)amino)ethyl]acetamide

>  <ClogP>
0,206

>  <logS>
-2,883

>  <HBD>
2

>  <HBA>
7

>  <TPSA>
105,4

>  <RotBonds>
7

$$$$

  Mrv1925 04172511352D          

 26 29  0  0  0  0            999 V2000
    0.4210    2.0625    0.0000 N   0  0  0  0  0  0  0  0  0  0  0  0
    1.1355    2.4750    0.0000 C   0  0  0  0  0  0  0  0  0  0  0  0
    1.1355    3.3000    0.0000 O   0  0  0  0  0  0  0  0  0  0  0  0
    1.8500    2.0625    0.0000 C   0  0  0  0  0  0  0  0  0  0  0  0
    2.5645    2.4750    0.0000 C   0  0  0  0  0  0  0  0  0  0  0  0
    2.5645    3.3000    0.0000 C   0  0  0  0  0  0  0  0  0  0  0  0
    3.2789    3.7125    0.0000 C   0  0  0  0  0  0  0  0  0  0  0  0
    3.9934    3.3000    0.0000 C   0  0  0  0  0  0  0  0  0  0  0  0
    3.9934    2.4750    0.0000 C   0  0  0  0  0  0  0  0  0  0  0  0
    3.2789    2.0625    0.0000 N   0  0  0  0  0  0  0  0  0  0  0  0
    3.2789    1.2375    0.0000 C   0  0  0  0  0  0  0  0  0  0  0  0
    3.9934    0.8250    0.0000 N   0  0  0  0  0  0  0  0  0  0  0  0
    3.9934    0.0000    0.0000 C   0  0  0  0  0  0  0  0  0  0  0  0
    3.2789   -0.4125    0.0000 N   0  0  0  0  0  0  0  0  0  0  0  0
    2.5645    0.0000    0.0000 C   0  0  0  0  0  0  0  0  0  0  0  0
    2.5645    0.8250    0.0000 C   0  0  0  0  0  0  0  0  0  0  0  0
    1.7798    1.0799    0.0000 N   0  0  0  0  0  0  0  0  0  0  0  0
    1.2949    0.4125    0.0000 C   0  0  0  0  0  0  0  0  0  0  0  0
    1.7798   -0.2549    0.0000 N   0  0  0  0  0  0  0  0  0  0  0  0
    1.5249   -1.0396    0.0000 C   0  0  0  0  0  0  0  0  0  0  0  0
    2.0769   -1.6527    0.0000 C   0  0  0  0  0  0  0  0  0  0  0  0
    1.4095   -2.1376    0.0000 O   0  0  0  0  0  0  0  0  0  0  0  0
    2.6290   -1.0396    0.0000 C   0  0  0  0  0  0  0  0  0  0  0  0
    3.3826   -1.3751    0.0000 C   0  0  0  0  0  0  0  0  0  0  0  0
    3.2964   -2.1956    0.0000 O   0  0  0  0  0  0  0  0  0  0  0  0
    2.4894   -2.3671    0.0000 C   0  0  0  0  0  0  0  0  0  0  0  0
  1  2  1  0  0  0  0
  2  3  2  0  0  0  0
  2  4  1  0  0  0  0
  4  5  1  0  0  0  0
  5  6  1  0  0  0  0
  6  7  1  0  0  0  0
  7  8  1  0  0  0  0
  8  9  1  0  0  0  0
  9 10  1  0  0  0  0
  5 10  1  0  0  0  0
 10 11  1  0  0  0  0
 11 12  1  0  0  0  0
 12 13  2  0  0  0  0
 13 14  1  0  0  0  0
 14 15  2  0  0  0  0
 15 16  1  0  0  0  0
 11 16  2  0  0  0  0
 16 17  1  0  0  0  0
 17 18  2  0  0  0  0
 18 19  1  0  0  0  0
 15 19  1  0  0  0  0
 19 20  1  0  0  0  0
 20 21  1  0  0  0  0
 21 22  1  0  0  0  0
 21 23  1  0  0  0  0
 23 24  1  0  0  0  0
 24 25  1  0  0  0  0
 25 26  1  0  0  0  0
 21 26  1  0  0  0  0
M  END
>  <Catalog ID>
Z2760941425

>  <Plate_ID>
2026983-X50-03

>  <Well>
E05

>  <V, µL>
50

>  <Conc, mM>
10

>  <Formula>
C17H24N6O3

>  <MW>
360.4109

>  <Purity>
100

>  <PO>
5A-64168

>  <MW_salt>
0

>  <Stereochem.data>
Diastereomeric mixture

>  <Geometric.isomer>
None

>  <Chemical name>
2-(1-{9-[(3-hydroxyoxolan-3-yl)methyl]-9H-purin-6-yl}piperidin-2-yl)acetamide

>  <ClogP>
-0,685

>  <logS>
-2,902

>  <HBD>
2

>  <HBA>
7

>  <TPSA>
119,39

>  <RotBonds>
5

$$$$

  Mrv1925 04172511352D          

 27 30  0  0  0  0            999 V2000
    2.5645    2.4750    0.0000 C   0  0  0  0  0  0  0  0  0  0  0  0
    3.2789    2.0625    0.0000 N   0  0  0  0  0  0  0  0  0  0  0  0
    3.9934    2.4750    0.0000 C   0  0  0  0  0  0  0  0  0  0  0  0
    3.9934    3.3000    0.0000 C   0  0  0  0  0  0  0  0  0  0  0  0
    4.7079    3.7125    0.0000 N   0  0  0  0  0  0  0  0  0  0  0  0
    4.7941    4.5330    0.0000 C   0  0  0  0  0  0  0  0  0  0  0  0
    5.6011    4.7045    0.0000 C   0  0  0  0  0  0  0  0  0  0  0  0
    6.0136    3.9900    0.0000 C   0  0  0  0  0  0  0  0  0  0  0  0
    5.4615    3.3769    0.0000 C   0  0  0  0  0  0  0  0  0  0  0  0
    5.6331    2.5700    0.0000 O   0  0  0  0  0  0  0  0  0  0  0  0
    3.2789    1.2375    0.0000 C   0  0  0  0  0  0  0  0  0  0  0  0
    3.9934    0.8250    0.0000 N   0  0  0  0  0  0  0  0  0  0  0  0
    3.9934    0.0000    0.0000 C   0  0  0  0  0  0  0  0  0  0  0  0
    3.2789   -0.4125    0.0000 N   0  0  0  0  0  0  0  0  0  0  0  0
    2.5645    0.0000    0.0000 C   0  0  0  0  0  0  0  0  0  0  0  0
    2.5645    0.8250    0.0000 C   0  0  0  0  0  0  0  0  0  0  0  0
    1.7798    1.0799    0.0000 N   0  0  0  0  0  0  0  0  0  0  0  0
    1.2949    0.4125    0.0000 C   0  0  0  0  0  0  0  0  0  0  0  0
    1.7798   -0.2549    0.0000 N   0  0  0  0  0  0  0  0  0  0  0  0
    1.5249   -1.0396    0.0000 C   0  0  0  0  0  0  0  0  0  0  0  0
    2.0769   -1.6527    0.0000 C   0  0  0  0  0  0  0  0  0  0  0  0
    1.3773   -2.0898    0.0000 O   0  0  0  0  0  0  0  0  0  0  0  0
    2.5848   -1.0025    0.0000 C   0  0  0  0  0  0  0  0  0  0  0  0
    3.4018   -1.1174    0.0000 C   0  0  0  0  0  0  0  0  0  0  0  0
    3.7109   -1.8823    0.0000 O   0  0  0  0  0  0  0  0  0  0  0  0
    3.2030   -2.5324    0.0000 C   0  0  0  0  0  0  0  0  0  0  0  0
    2.3860   -2.4176    0.0000 C   0  0  0  0  0  0  0  0  0  0  0  0
  1  2  1  0  0  0  0
  2  3  1  0  0  0  0
  3  4  1  0  0  0  0
  4  5  1  0  0  0  0
  5  6  1  0  0  0  0
  6  7  1  0  0  0  0
  7  8  1  0  0  0  0
  8  9  1  0  0  0  0
  5  9  1  0  0  0  0
  9 10  2  0  0  0  0
  2 11  1  0  0  0  0
 11 12  1  0  0  0  0
 12 13  2  0  0  0  0
 13 14  1  0  0  0  0
 14 15  2  0  0  0  0
 15 16  1  0  0  0  0
 11 16  2  0  0  0  0
 16 17  1  0  0  0  0
 17 18  2  0  0  0  0
 18 19  1  0  0  0  0
 15 19  1  0  0  0  0
 19 20  1  0  0  0  0
 20 21  1  0  0  0  0
 21 22  1  0  0  0  0
 21 23  1  0  0  0  0
 23 24  1  0  0  0  0
 24 25  1  0  0  0  0
 25 26  1  0  0  0  0
 26 27  1  0  0  0  0
 21 27  1  0  0  0  0
M  END
>  <Catalog ID>
Z2760947151

>  <Plate_ID>
2026983-X50-03

>  <Well>
F05

>  <V, µL>
50

>  <Conc, mM>
10

>  <Formula>
C18H26N6O3

>  <MW>
374.4374

>  <Purity>
96.66

>  <PO>
5A-64168

>  <MW_salt>
0

>  <Stereochem.data>
Achiral

>  <Geometric.isomer>
None

>  <Chemical name>
1-[2-({9-[(4-hydroxyoxan-4-yl)methyl]-9H-purin-6-yl}(methyl)amino)ethyl]pyrrolidin-2-one

>  <ClogP>
-0,901

>  <logS>
-2,692

>  <HBD>
1

>  <HBA>
7

>  <TPSA>
96,61

>  <RotBonds>
6

$$$$

  Mrv1925 04172511352D          

 27 30  0  0  0  0            999 V2000
    1.1355    2.4750    0.0000 O   0  0  0  0  0  0  0  0  0  0  0  0
    1.8500    2.0625    0.0000 C   0  0  0  0  0  0  0  0  0  0  0  0
    2.5645    2.4750    0.0000 C   0  0  0  0  0  0  0  0  0  0  0  0
    3.2789    2.0625    0.0000 N   0  0  0  0  0  0  0  0  0  0  0  0
    3.9934    2.4750    0.0000 C   0  0  0  0  0  0  0  0  0  0  0  0
    3.9934    3.3000    0.0000 C   0  0  0  0  0  0  0  0  0  0  0  0
    3.2789    3.7125    0.0000 C   0  0  0  0  0  0  0  0  0  0  0  0
    3.2789    4.5375    0.0000 C   0  0  0  0  0  0  0  0  0  0  0  0
    3.9934    4.9500    0.0000 C   0  0  0  0  0  0  0  0  0  0  0  0
    4.7079    4.5375    0.0000 C   0  0  0  0  0  0  0  0  0  0  0  0
    4.7079    3.7125    0.0000 C   0  0  0  0  0  0  0  0  0  0  0  0
    3.2789    1.2375    0.0000 C   0  0  0  0  0  0  0  0  0  0  0  0
    3.9934    0.8250    0.0000 N   0  0  0  0  0  0  0  0  0  0  0  0
    3.9934    0.0000    0.0000 C   0  0  0  0  0  0  0  0  0  0  0  0
    3.2789   -0.4125    0.0000 N   0  0  0  0  0  0  0  0  0  0  0  0
    2.5645    0.0000    0.0000 C   0  0  0  0  0  0  0  0  0  0  0  0
    2.5645    0.8250    0.0000 C   0  0  0  0  0  0  0  0  0  0  0  0
    1.7798    1.0799    0.0000 N   0  0  0  0  0  0  0  0  0  0  0  0
    1.2949    0.4125    0.0000 C   0  0  0  0  0  0  0  0  0  0  0  0
    1.7798   -0.2549    0.0000 N   0  0  0  0  0  0  0  0  0  0  0  0
    1.5249   -1.0396    0.0000 C   0  0  0  0  0  0  0  0  0  0  0  0
    2.0769   -1.6527    0.0000 C   0  0  0  0  0  0  0  0  0  0  0  0
    1.4095   -2.1376    0.0000 O   0  0  0  0  0  0  0  0  0  0  0  0
    2.6290   -1.0396    0.0000 C   0  0  0  0  0  0  0  0  0  0  0  0
    3.3826   -1.3751    0.0000 C   0  0  0  0  0  0  0  0  0  0  0  0
    3.2964   -2.1956    0.0000 O   0  0  0  0  0  0  0  0  0  0  0  0
    2.4894   -2.3671    0.0000 C   0  0  0  0  0  0  0  0  0  0  0  0
  1  2  1  0  0  0  0
  2  3  1  0  0  0  0
  3  4  1  0  0  0  0
  4  5  1  0  0  0  0
  5  6  1  0  0  0  0
  6  7  1  0  0  0  0
  7  8  1  0  0  0  0
  8  9  1  0  0  0  0
  9 10  1  0  0  0  0
 10 11  1  0  0  0  0
  6 11  1  0  0  0  0
  4 12  1  0  0  0  0
 12 13  1  0  0  0  0
 13 14  2  0  0  0  0
 14 15  1  0  0  0  0
 15 16  2  0  0  0  0
 16 17  1  0  0  0  0
 12 17  2  0  0  0  0
 17 18  1  0  0  0  0
 18 19  2  0  0  0  0
 19 20  1  0  0  0  0
 16 20  1  0  0  0  0
 20 21  1  0  0  0  0
 21 22  1  0  0  0  0
 22 23  1  0  0  0  0
 22 24  1  0  0  0  0
 24 25  1  0  0  0  0
 25 26  1  0  0  0  0
 26 27  1  0  0  0  0
 22 27  1  0  0  0  0
M  END
>  <Catalog ID>
Z2760963608

>  <Plate_ID>
2026983-X50-03

>  <Well>
G05

>  <V, µL>
50

>  <Conc, mM>
10

>  <Formula>
C19H29N5O3

>  <MW>
375.4653

>  <Purity>
100

>  <PO>
5A-64168

>  <MW_salt>
0

>  <Stereochem.data>
Racemic or presumed racemic or meso

>  <Geometric.isomer>
None

>  <Chemical name>
3-({6-[(cyclohexylmethyl)(2-hydroxyethyl)amino]-9H-purin-9-yl}methyl)oxolan-3-ol

>  <ClogP>
1,535

>  <logS>
-4,294

>  <HBD>
2

>  <HBA>
7

>  <TPSA>
96,53

>  <RotBonds>
7

$$$$

  Mrv1925 04172511352D          

 18 20  0  0  0  0            999 V2000
    0.8838   -2.1500    0.0000 C   0  0  0  0  0  0  0  0  0  0  0  0
    1.1387   -1.3654    0.0000 N   0  0  0  0  0  0  0  0  0  0  0  0
    0.6538   -0.6979    0.0000 C   0  0  0  0  0  0  0  0  0  0  0  0
    1.1387   -0.0305    0.0000 N   0  0  0  0  0  0  0  0  0  0  0  0
    1.9233   -0.2854    0.0000 C   0  0  0  0  0  0  0  0  0  0  0  0
    2.6378    0.1271    0.0000 C   0  0  0  0  0  0  0  0  0  0  0  0
    2.6378    0.9521    0.0000 O   0  0  0  0  0  0  0  0  0  0  0  0
    3.3523   -0.2854    0.0000 N   0  0  0  0  0  0  0  0  0  0  0  0
    3.3523   -1.1104    0.0000 C   0  0  0  0  0  0  0  0  0  0  0  0
    2.6378   -1.5229    0.0000 N   0  0  0  0  0  0  0  0  0  0  0  0
    1.9233   -1.1104    0.0000 C   0  0  0  0  0  0  0  0  0  0  0  0
    4.0668    0.1271    0.0000 C   0  0  0  0  0  0  0  0  0  0  0  0
    4.0668    0.9521    0.0000 C   0  0  0  0  0  0  0  0  0  0  0  0
    3.3523    1.3646    0.0000 O   0  0  0  0  0  0  0  0  0  0  0  0
    4.7812    1.3646    0.0000 C   0  0  0  0  0  0  0  0  0  0  0  0
    4.9948    2.1614    0.0000 C   0  0  0  0  0  0  0  0  0  0  0  0
    5.7916    1.9479    0.0000 C   0  0  0  0  0  0  0  0  0  0  0  0
    5.5781    1.1510    0.0000 C   0  0  0  0  0  0  0  0  0  0  0  0
  1  2  1  0  0  0  0
  2  3  1  0  0  0  0
  3  4  2  0  0  0  0
  4  5  1  0  0  0  0
  5  6  1  0  0  0  0
  6  7  2  0  0  0  0
  6  8  1  0  0  0  0
  8  9  1  0  0  0  0
  9 10  2  0  0  0  0
 10 11  1  0  0  0  0
  5 11  2  0  0  0  0
  2 11  1  0  0  0  0
  8 12  1  0  0  0  0
 12 13  1  0  0  0  0
 13 14  1  0  0  0  0
 13 15  1  0  0  0  0
 15 16  1  0  0  0  0
 16 17  1  0  0  0  0
 17 18  1  0  0  0  0
 15 18  1  0  0  0  0
M  END
>  <Catalog ID>
Z3292798294

>  <Plate_ID>
2026983-X50-03

>  <Well>
H05

>  <V, µL>
50

>  <Conc, mM>
10

>  <Formula>
C12H16N4O2

>  <MW>
248.281

>  <Purity>
100

>  <PO>
5A-64168

>  <MW_salt>
0

>  <Stereochem.data>
Racemic or presumed racemic or meso

>  <Geometric.isomer>
None

>  <Chemical name>
1-(2-cyclobutyl-2-hydroxyethyl)-9-methyl-6,9-dihydro-1H-purin-6-one

>  <ClogP>
-0,393

>  <logS>
-1,818

>  <HBD>
1

>  <HBA>
4

>  <TPSA>
70,72

>  <RotBonds>
3

$$$$

  Mrv1925 04172511352D          

 30 33  0  0  0  0            999 V2000
    2.5645    5.7750    0.0000 C   0  0  0  0  0  0  0  0  0  0  0  0
    2.5645    4.9500    0.0000 C   0  0  0  0  0  0  0  0  0  0  0  0
    1.8500    4.5375    0.0000 C   0  0  0  0  0  0  0  0  0  0  0  0
    3.2789    4.5375    0.0000 C   0  0  0  0  0  0  0  0  0  0  0  0
    3.2789    3.7125    0.0000 N   0  0  0  0  0  0  0  0  0  0  0  0
    3.9934    3.3000    0.0000 C   0  0  0  0  0  0  0  0  0  0  0  0
    3.9934    2.4750    0.0000 C   0  0  0  0  0  0  0  0  0  0  0  0
    3.2789    2.0625    0.0000 N   0  0  0  0  0  0  0  0  0  0  0  0
    3.2789    1.2375    0.0000 C   0  0  0  0  0  0  0  0  0  0  0  0
    3.9934    0.8250    0.0000 N   0  0  0  0  0  0  0  0  0  0  0  0
    3.9934    0.0000    0.0000 C   0  0  0  0  0  0  0  0  0  0  0  0
    3.2789   -0.4125    0.0000 N   0  0  0  0  0  0  0  0  0  0  0  0
    2.5645    0.0000    0.0000 C   0  0  0  0  0  0  0  0  0  0  0  0
    2.5645    0.8250    0.0000 C   0  0  0  0  0  0  0  0  0  0  0  0
    1.7798    1.0799    0.0000 N   0  0  0  0  0  0  0  0  0  0  0  0
    1.2949    0.4125    0.0000 C   0  0  0  0  0  0  0  0  0  0  0  0
    1.7798   -0.2549    0.0000 N   0  0  0  0  0  0  0  0  0  0  0  0
    1.5249   -1.0396    0.0000 C   0  0  0  0  0  0  0  0  0  0  0  0
    2.0769   -1.6527    0.0000 C   0  0  0  0  0  0  0  0  0  0  0  0
    1.3773   -2.0898    0.0000 C   0  0  0  0  0  0  0  0  0  0  0  0
    1.4061   -2.9143    0.0000 O   0  0  0  0  0  0  0  0  0  0  0  0
    2.5848   -1.0025    0.0000 C   0  0  0  0  0  0  0  0  0  0  0  0
    3.4018   -1.1174    0.0000 C   0  0  0  0  0  0  0  0  0  0  0  0
    3.7109   -1.8823    0.0000 O   0  0  0  0  0  0  0  0  0  0  0  0
    3.2030   -2.5324    0.0000 C   0  0  0  0  0  0  0  0  0  0  0  0
    2.3860   -2.4176    0.0000 C   0  0  0  0  0  0  0  0  0  0  0  0
    2.5645    2.4750    0.0000 C   0  0  0  0  0  0  0  0  0  0  0  0
    1.8500    2.0625    0.0000 C   0  0  0  0  0  0  0  0  0  0  0  0
    2.5645    3.3000    0.0000 C   0  0  0  0  0  0  0  0  0  0  0  0
    1.8500    3.7125    0.0000 O   0  0  0  0  0  0  0  0  0  0  0  0
  1  2  1  0  0  0  0
  2  3  1  0  0  0  0
  2  4  1  0  0  0  0
  4  5  1  0  0  0  0
  5  6  1  0  0  0  0
  6  7  1  0  0  0  0
  7  8  1  0  0  0  0
  8  9  1  0  0  0  0
  9 10  1  0  0  0  0
 10 11  2  0  0  0  0
 11 12  1  0  0  0  0
 12 13  2  0  0  0  0
 13 14  1  0  0  0  0
  9 14  2  0  0  0  0
 14 15  1  0  0  0  0
 15 16  2  0  0  0  0
 16 17  1  0  0  0  0
 13 17  1  0  0  0  0
 17 18  1  0  0  0  0
 18 19  1  0  0  0  0
 19 20  1  0  0  0  0
 20 21  1  0  0  0  0
 19 22  1  0  0  0  0
 22 23  1  0  0  0  0
 23 24  1  0  0  0  0
 24 25  1  0  0  0  0
 25 26  1  0  0  0  0
 19 26  1  0  0  0  0
  8 27  1  0  0  0  0
 27 28  1  0  0  0  0
 27 29  1  0  0  0  0
  5 29  1  0  0  0  0
 29 30  2  0  0  0  0
M  END
>  <Catalog ID>
Z2760964372

>  <Plate_ID>
2026983-X50-03

>  <Well>
A06

>  <V, µL>
50

>  <Conc, mM>
10

>  <Formula>
C21H32N6O3

>  <MW>
416.5172

>  <Purity>
100

>  <PO>
5A-64168

>  <MW_salt>
0

>  <Stereochem.data>
Racemic or presumed racemic or meso

>  <Geometric.isomer>
None

>  <Chemical name>
4-(9-{[4-(hydroxymethyl)oxan-4-yl]methyl}-9H-purin-6-yl)-3-methyl-1-(2-methylpropyl)piperazin-2-one

>  <ClogP>
1,247

>  <logS>
-3,391

>  <HBD>
1

>  <HBA>
7

>  <TPSA>
96,61

>  <RotBonds>
6

$$$$

  Mrv1925 04172511352D          

 25 27  0  0  0  0            999 V2000
    3.2789    2.0625    0.0000 C   0  0  0  0  0  0  0  0  0  0  0  0
    3.2789    1.2375    0.0000 C   0  0  0  0  0  0  0  0  0  0  0  0
    3.9934    0.8250    0.0000 C   0  0  0  0  0  0  0  0  0  0  0  0
    3.9934    0.0000    0.0000 C   0  0  0  0  0  0  0  0  0  0  0  0
    3.2789   -0.4125    0.0000 C   0  0  0  0  0  0  0  0  0  0  0  0
    2.5645    0.0000    0.0000 C   0  0  0  0  0  0  0  0  0  0  0  0
    1.7798   -0.2549    0.0000 C   0  0  0  0  0  0  0  0  0  0  0  0
    1.2949    0.4125    0.0000 C   0  0  0  0  0  0  0  0  0  0  0  0
    1.7798    1.0799    0.0000 C   0  0  0  0  0  0  0  0  0  0  0  0
    2.5645    0.8250    0.0000 C   0  0  0  0  0  0  0  0  0  0  0  0
    4.7079    1.2375    0.0000 C   0  0  0  0  0  0  0  0  0  0  0  0
    5.4223    0.8250    0.0000 N   0  0  0  0  0  0  0  0  0  0  0  0
    6.1368    1.2375    0.0000 C   0  0  0  0  0  0  0  0  0  0  0  0
    6.8513    0.8250    0.0000 C   0  0  0  0  0  0  0  0  0  0  0  0
    7.5658    1.2375    0.0000 C   0  0  0  0  0  0  0  0  0  0  0  0
    8.2802    0.8250    0.0000 N   0  0  0  0  0  0  0  0  0  0  0  0
    8.2802    0.0000    0.0000 C   0  0  0  0  0  0  0  0  0  0  0  0
    8.9947   -0.4125    0.0000 O   0  0  0  0  0  0  0  0  0  0  0  0
    7.5658   -0.4125    0.0000 N   0  0  0  0  0  0  0  0  0  0  0  0
    6.8513    0.0000    0.0000 C   0  0  0  0  0  0  0  0  0  0  0  0
    6.1368   -0.4125    0.0000 O   0  0  0  0  0  0  0  0  0  0  0  0
    8.9947    1.2375    0.0000 C   0  0  0  0  0  0  0  0  0  0  0  0
    9.7092    1.6500    0.0000 C   0  0  0  0  0  0  0  0  0  0  0  0
    9.4072    0.5230    0.0000 C   0  0  0  0  0  0  0  0  0  0  0  0
    8.5822    1.9520    0.0000 C   0  0  0  0  0  0  0  0  0  0  0  0
  1  2  1  0  0  0  0
  2  3  1  0  0  0  0
  3  4  2  0  0  0  0
  4  5  1  0  0  0  0
  5  6  2  0  0  0  0
  6  7  1  0  0  0  0
  7  8  1  0  0  0  0
  8  9  1  0  0  0  0
  9 10  1  0  0  0  0
  2 10  2  0  0  0  0
  6 10  1  0  0  0  0
  3 11  1  0  0  0  0
 11 12  1  0  0  0  0
 12 13  1  0  0  0  0
 13 14  1  0  0  0  0
 14 15  2  0  0  0  0
 15 16  1  0  0  0  0
 16 17  1  0  0  0  0
 17 18  2  0  0  0  0
 17 19  1  0  0  0  0
 19 20  1  0  0  0  0
 14 20  1  0  0  0  0
 20 21  2  0  0  0  0
 16 22  1  0  0  0  0
 22 23  1  0  0  0  0
 22 24  1  0  0  0  0
 22 25  1  0  0  0  0
M  END
>  <Catalog ID>
Z4169810948

>  <Plate_ID>
2026983-X50-03

>  <Well>
B06

>  <V, µL>
50

>  <Conc, mM>
10

>  <Formula>
C20H27N3O2

>  <MW>
341.4473

>  <Purity>
100

>  <PO>
5A-64168

>  <MW_salt>
0

>  <Stereochem.data>
Achiral

>  <Geometric.isomer>
None

>  <Chemical name>
1-tert-butyl-5-({[(4-methyl-2,3-dihydro-1H-inden-5-yl)methyl]amino}methyl)-1,2,3,4-tetrahydropyrimidine-2,4-dione

>  <ClogP>
2,025

>  <logS>
-4,34

>  <HBD>
2

>  <HBA>
3

>  <TPSA>
61,44

>  <RotBonds>
5

$$$$

  Mrv1925 04172511352D          

 26 29  0  0  0  0            999 V2000
   -0.2934    2.4750    0.0000 C   0  0  0  0  0  0  0  0  0  0  0  0
    0.4210    2.0625    0.0000 C   0  0  0  0  0  0  0  0  0  0  0  0
    1.1355    2.4750    0.0000 O   0  0  0  0  0  0  0  0  0  0  0  0
    1.8500    2.0625    0.0000 C   0  0  0  0  0  0  0  0  0  0  0  0
    2.5645    2.4750    0.0000 C   0  0  0  0  0  0  0  0  0  0  0  0
    2.5645    3.3000    0.0000 C   0  0  0  0  0  0  0  0  0  0  0  0
    3.2789    3.7125    0.0000 C   0  0  0  0  0  0  0  0  0  0  0  0
    3.9934    3.3000    0.0000 C   0  0  0  0  0  0  0  0  0  0  0  0
    3.9934    2.4750    0.0000 C   0  0  0  0  0  0  0  0  0  0  0  0
    3.2789    2.0625    0.0000 N   0  0  0  0  0  0  0  0  0  0  0  0
    3.2789    1.2375    0.0000 C   0  0  0  0  0  0  0  0  0  0  0  0
    3.9934    0.8250    0.0000 N   0  0  0  0  0  0  0  0  0  0  0  0
    3.9934    0.0000    0.0000 C   0  0  0  0  0  0  0  0  0  0  0  0
    3.2789   -0.4125    0.0000 N   0  0  0  0  0  0  0  0  0  0  0  0
    2.5645    0.0000    0.0000 C   0  0  0  0  0  0  0  0  0  0  0  0
    2.5645    0.8250    0.0000 C   0  0  0  0  0  0  0  0  0  0  0  0
    1.7798    1.0799    0.0000 N   0  0  0  0  0  0  0  0  0  0  0  0
    1.2949    0.4125    0.0000 C   0  0  0  0  0  0  0  0  0  0  0  0
    1.7798   -0.2549    0.0000 N   0  0  0  0  0  0  0  0  0  0  0  0
    1.5249   -1.0396    0.0000 C   0  0  0  0  0  0  0  0  0  0  0  0
    0.7179   -1.2111    0.0000 C   0  0  0  0  0  0  0  0  0  0  0  0
    0.5464   -0.4041    0.0000 C   0  0  0  0  0  0  0  0  0  0  0  0
   -0.2382   -0.1492    0.0000 O   0  0  0  0  0  0  0  0  0  0  0  0
    0.8895   -2.0181    0.0000 C   0  0  0  0  0  0  0  0  0  0  0  0
    0.0825   -2.1896    0.0000 O   0  0  0  0  0  0  0  0  0  0  0  0
   -0.0890   -1.3826    0.0000 C   0  0  0  0  0  0  0  0  0  0  0  0
  1  2  1  0  0  0  0
  2  3  1  0  0  0  0
  3  4  1  0  0  0  0
  4  5  1  0  0  0  0
  5  6  1  0  0  0  0
  6  7  1  0  0  0  0
  7  8  1  0  0  0  0
  8  9  1  0  0  0  0
  9 10  1  0  0  0  0
  5 10  1  0  0  0  0
 10 11  1  0  0  0  0
 11 12  1  0  0  0  0
 12 13  2  0  0  0  0
 13 14  1  0  0  0  0
 14 15  2  0  0  0  0
 15 16  1  0  0  0  0
 11 16  2  0  0  0  0
 16 17  1  0  0  0  0
 17 18  2  0  0  0  0
 18 19  1  0  0  0  0
 15 19  1  0  0  0  0
 19 20  1  0  0  0  0
 20 21  1  0  0  0  0
 21 22  1  0  0  0  0
 22 23  1  0  0  0  0
 21 24  1  0  0  0  0
 24 25  1  0  0  0  0
 25 26  1  0  0  0  0
 21 26  1  0  0  0  0
M  END
>  <Catalog ID>
Z2760974986

>  <Plate_ID>
2026983-X50-03

>  <Well>
C06

>  <V, µL>
50

>  <Conc, mM>
10

>  <Formula>
C18H27N5O3

>  <MW>
361.4387

>  <Purity>
95.14

>  <PO>
5A-64168

>  <MW_salt>
0

>  <Stereochem.data>
Racemic or presumed racemic or meso

>  <Geometric.isomer>
None

>  <Chemical name>
[3-({6-[2-(ethoxymethyl)piperidin-1-yl]-9H-purin-9-yl}methyl)oxetan-3-yl]methanol

>  <ClogP>
-0,337

>  <logS>
-2,557

>  <HBD>
1

>  <HBA>
7

>  <TPSA>
85,53

>  <RotBonds>
7

$$$$

  Mrv1925 04172511352D          

 27 30  0  0  0  0            999 V2000
    2.5645    5.7750    0.0000 C   0  0  0  0  0  0  0  0  0  0  0  0
    2.5645    4.9500    0.0000 C   0  0  0  0  0  0  0  0  0  0  0  0
    1.8500    4.5375    0.0000 O   0  0  0  0  0  0  0  0  0  0  0  0
    3.2789    4.5375    0.0000 C   0  0  0  0  0  0  0  0  0  0  0  0
    3.2789    3.7125    0.0000 N   0  0  0  0  0  0  0  0  0  0  0  0
    3.9934    3.3000    0.0000 C   0  0  0  0  0  0  0  0  0  0  0  0
    3.9934    2.4750    0.0000 C   0  0  0  0  0  0  0  0  0  0  0  0
    3.2789    2.0625    0.0000 N   0  0  0  0  0  0  0  0  0  0  0  0
    3.2789    1.2375    0.0000 C   0  0  0  0  0  0  0  0  0  0  0  0
    3.9934    0.8250    0.0000 N   0  0  0  0  0  0  0  0  0  0  0  0
    3.9934    0.0000    0.0000 C   0  0  0  0  0  0  0  0  0  0  0  0
    3.2789   -0.4125    0.0000 N   0  0  0  0  0  0  0  0  0  0  0  0
    2.5645    0.0000    0.0000 C   0  0  0  0  0  0  0  0  0  0  0  0
    2.5645    0.8250    0.0000 C   0  0  0  0  0  0  0  0  0  0  0  0
    1.7798    1.0799    0.0000 N   0  0  0  0  0  0  0  0  0  0  0  0
    1.2949    0.4125    0.0000 C   0  0  0  0  0  0  0  0  0  0  0  0
    1.7798   -0.2549    0.0000 N   0  0  0  0  0  0  0  0  0  0  0  0
    1.5249   -1.0396    0.0000 C   0  0  0  0  0  0  0  0  0  0  0  0
    0.7179   -1.2111    0.0000 C   0  0  0  0  0  0  0  0  0  0  0  0
    0.5464   -0.4041    0.0000 C   0  0  0  0  0  0  0  0  0  0  0  0
   -0.2382   -0.1492    0.0000 O   0  0  0  0  0  0  0  0  0  0  0  0
    0.8895   -2.0181    0.0000 C   0  0  0  0  0  0  0  0  0  0  0  0
    0.0825   -2.1896    0.0000 O   0  0  0  0  0  0  0  0  0  0  0  0
   -0.0890   -1.3826    0.0000 C   0  0  0  0  0  0  0  0  0  0  0  0
    2.5645    2.4750    0.0000 C   0  0  0  0  0  0  0  0  0  0  0  0
    1.8500    2.0625    0.0000 C   0  0  0  0  0  0  0  0  0  0  0  0
    2.5645    3.3000    0.0000 C   0  0  0  0  0  0  0  0  0  0  0  0
  1  2  1  0  0  0  0
  2  3  1  0  0  0  0
  2  4  1  0  0  0  0
  4  5  1  0  0  0  0
  5  6  1  0  0  0  0
  6  7  1  0  0  0  0
  7  8  1  0  0  0  0
  8  9  1  0  0  0  0
  9 10  1  0  0  0  0
 10 11  2  0  0  0  0
 11 12  1  0  0  0  0
 12 13  2  0  0  0  0
 13 14  1  0  0  0  0
  9 14  2  0  0  0  0
 14 15  1  0  0  0  0
 15 16  2  0  0  0  0
 16 17  1  0  0  0  0
 13 17  1  0  0  0  0
 17 18  1  0  0  0  0
 18 19  1  0  0  0  0
 19 20  1  0  0  0  0
 20 21  1  0  0  0  0
 19 22  1  0  0  0  0
 22 23  1  0  0  0  0
 23 24  1  0  0  0  0
 19 24  1  0  0  0  0
  8 25  1  0  0  0  0
 25 26  1  0  0  0  0
 25 27  1  0  0  0  0
  5 27  1  0  0  0  0
M  END
>  <Catalog ID>
Z2760964833

>  <Plate_ID>
2026983-X50-03

>  <Well>
D06

>  <V, µL>
50

>  <Conc, mM>
10

>  <Formula>
C18H28N6O3

>  <MW>
376.4533

>  <Purity>
95.46

>  <PO>
5A-64168

>  <MW_salt>
0

>  <Stereochem.data>
Diastereomeric mixture

>  <Geometric.isomer>
None

>  <Chemical name>
1-[4-(9-{[3-(hydroxymethyl)oxetan-3-yl]methyl}-9H-purin-6-yl)-3-methylpiperazin-1-yl]propan-2-ol

>  <ClogP>
-1,338

>  <logS>
-1,632

>  <HBD>
2

>  <HBA>
8

>  <TPSA>
99,77

>  <RotBonds>
6

$$$$

  Mrv1925 04172511352D          

 29 32  0  0  0  0            999 V2000
    4.9502    2.4825    0.0000 C   0  0  0  0  0  0  0  0  0  0  0  0
    4.4358    1.8374    0.0000 C   0  0  0  0  0  0  0  0  0  0  0  0
    4.7938    1.0941    0.0000 C   0  0  0  0  0  0  0  0  0  0  0  0
    4.4358    0.3508    0.0000 C   0  0  0  0  0  0  0  0  0  0  0  0
    3.6315    0.1673    0.0000 N   0  0  0  0  0  0  0  0  0  0  0  0
    3.4479   -0.6370    0.0000 C   0  0  0  0  0  0  0  0  0  0  0  0
    4.0527   -1.1982    0.0000 O   0  0  0  0  0  0  0  0  0  0  0  0
    2.6596   -0.8802    0.0000 C   0  0  0  0  0  0  0  0  0  0  0  0
    2.4760   -1.6845    0.0000 N   0  0  0  0  0  0  0  0  0  0  0  0
    3.0808   -2.2457    0.0000 C   0  0  0  0  0  0  0  0  0  0  0  0
    3.8691   -2.0025    0.0000 O   0  0  0  0  0  0  0  0  0  0  0  0
    2.8972   -3.0500    0.0000 C   0  0  0  0  0  0  0  0  0  0  0  0
    3.5020   -3.6111    0.0000 F   0  0  0  0  0  0  0  0  0  0  0  0
    2.1088   -3.2932    0.0000 C   0  0  0  0  0  0  0  0  0  0  0  0
    1.5041   -2.7320    0.0000 N   0  0  0  0  0  0  0  0  0  0  0  0
    1.6876   -1.9277    0.0000 C   0  0  0  0  0  0  0  0  0  0  0  0
    1.0829   -1.3666    0.0000 O   0  0  0  0  0  0  0  0  0  0  0  0
    0.7157   -2.9752    0.0000 C   0  0  0  0  0  0  0  0  0  0  0  0
    0.4491   -3.7559    0.0000 C   0  0  0  0  0  0  0  0  0  0  0  0
   -0.3758   -3.7436    0.0000 C   0  0  0  0  0  0  0  0  0  0  0  0
   -0.6190   -2.9552    0.0000 C   0  0  0  0  0  0  0  0  0  0  0  0
    0.0556   -2.4803    0.0000 O   0  0  0  0  0  0  0  0  0  0  0  0
    2.9865    0.6816    0.0000 C   0  0  0  0  0  0  0  0  0  0  0  0
    2.2720    0.2691    0.0000 C   0  0  0  0  0  0  0  0  0  0  0  0
    1.5575    0.6816    0.0000 C   0  0  0  0  0  0  0  0  0  0  0  0
    1.5575    1.5066    0.0000 C   0  0  0  0  0  0  0  0  0  0  0  0
    2.2720    1.9191    0.0000 C   0  0  0  0  0  0  0  0  0  0  0  0
    2.9865    1.5066    0.0000 C   0  0  0  0  0  0  0  0  0  0  0  0
    3.6315    2.0210    0.0000 S   0  0  0  0  0  0  0  0  0  0  0  0
  1  2  1  0  0  0  0
  2  3  1  0  0  0  0
  3  4  1  0  0  0  0
  4  5  1  0  0  0  0
  5  6  1  0  0  0  0
  6  7  2  0  0  0  0
  6  8  1  0  0  0  0
  8  9  1  0  0  0  0
  9 10  1  0  0  0  0
 10 11  2  0  0  0  0
 10 12  1  0  0  0  0
 12 13  1  0  0  0  0
 12 14  2  0  0  0  0
 14 15  1  0  0  0  0
 15 16  1  0  0  0  0
  9 16  1  0  0  0  0
 16 17  2  0  0  0  0
 15 18  1  0  0  0  0
 18 19  1  0  0  0  0
 19 20  1  0  0  0  0
 20 21  1  0  0  0  0
 21 22  1  0  0  0  0
 18 22  1  0  0  0  0
  5 23  1  0  0  0  0
 23 24  1  0  0  0  0
 24 25  2  0  0  0  0
 25 26  1  0  0  0  0
 26 27  2  0  0  0  0
 27 28  1  0  0  0  0
 23 28  2  0  0  0  0
 28 29  1  0  0  0  0
  2 29  1  0  0  0  0
M  END
>  <Catalog ID>
Z335081646

>  <Plate_ID>
2026983-X50-03

>  <Well>
E06

>  <V, µL>
50

>  <Conc, mM>
10

>  <Formula>
C20H22FN3O4S

>  <MW>
419.4698

>  <Purity>
100

>  <PO>
5A-64168

>  <MW_salt>
0

>  <Stereochem.data>
Diastereomeric mixture

>  <Geometric.isomer>
None

>  <Chemical name>
5-fluoro-3-[2-(2-methyl-2,3,4,5-tetrahydro-1,5-benzothiazepin-5-yl)-2-oxoethyl]-1-(oxolan-2-yl)-1,2,3,4-tetrahydropyrimidine-2,4-dione

>  <ClogP>
3,524

>  <logS>
-4,32

>  <HBD>
0

>  <HBA>
4

>  <TPSA>
70,16

>  <RotBonds>
3

$$$$

  Mrv1925 04172511352D          

 24 26  0  0  0  0            999 V2000
   -1.4289   -5.7750    0.0000 C   0  0  0  0  0  0  0  0  0  0  0  0
   -0.7145   -5.3625    0.0000 C   0  0  0  0  0  0  0  0  0  0  0  0
   -0.3020   -6.0770    0.0000 C   0  0  0  0  0  0  0  0  0  0  0  0
   -1.1270   -4.6480    0.0000 C   0  0  0  0  0  0  0  0  0  0  0  0
    0.0000   -4.9500    0.0000 N   0  0  0  0  0  0  0  0  0  0  0  0
    0.0000   -4.1250    0.0000 C   0  0  0  0  0  0  0  0  0  0  0  0
    0.7145   -3.7125    0.0000 C   0  0  0  0  0  0  0  0  0  0  0  0
    0.7145   -2.8875    0.0000 C   0  0  0  0  0  0  0  0  0  0  0  0
    1.4289   -2.4750    0.0000 N   0  0  0  0  0  0  0  0  0  0  0  0
    1.4289   -1.6500    0.0000 C   0  0  0  0  0  0  0  0  0  0  0  0
    0.7145   -1.2375    0.0000 C   0  0  0  0  0  0  0  0  0  0  0  0
    0.7145   -0.4125    0.0000 C   0  0  0  0  0  0  0  0  0  0  0  0
    1.4289    0.0000    0.0000 N   0  0  0  0  0  0  0  0  0  0  0  0
    2.1434   -0.4125    0.0000 C   0  0  0  0  0  0  0  0  0  0  0  0
    2.8579    0.0000    0.0000 C   0  0  0  0  0  0  0  0  0  0  0  0
    3.5724   -0.4125    0.0000 C   0  0  0  0  0  0  0  0  0  0  0  0
    3.5724   -1.2375    0.0000 N   0  0  0  0  0  0  0  0  0  0  0  0
    2.8579   -1.6500    0.0000 C   0  0  0  0  0  0  0  0  0  0  0  0
    2.1434   -1.2375    0.0000 C   0  0  0  0  0  0  0  0  0  0  0  0
    1.4289   -4.1250    0.0000 C   0  0  0  0  0  0  0  0  0  0  0  0
    2.1434   -3.7125    0.0000 O   0  0  0  0  0  0  0  0  0  0  0  0
    1.4289   -4.9500    0.0000 N   0  0  0  0  0  0  0  0  0  0  0  0
    0.7145   -5.3625    0.0000 C   0  0  0  0  0  0  0  0  0  0  0  0
    0.7145   -6.1875    0.0000 O   0  0  0  0  0  0  0  0  0  0  0  0
  1  2  1  0  0  0  0
  2  3  1  0  0  0  0
  2  4  1  0  0  0  0
  2  5  1  0  0  0  0
  5  6  1  0  0  0  0
  6  7  2  0  0  0  0
  7  8  1  0  0  0  0
  8  9  1  0  0  0  0
  9 10  1  0  0  0  0
 10 11  1  0  0  0  0
 11 12  2  0  0  0  0
 12 13  1  0  0  0  0
 13 14  2  0  0  0  0
 14 15  1  0  0  0  0
 15 16  2  0  0  0  0
 16 17  1  0  0  0  0
 17 18  2  0  0  0  0
 18 19  1  0  0  0  0
 10 19  2  0  0  0  0
 14 19  1  0  0  0  0
  7 20  1  0  0  0  0
 20 21  2  0  0  0  0
 20 22  1  0  0  0  0
 22 23  1  0  0  0  0
  5 23  1  0  0  0  0
 23 24  2  0  0  0  0
M  END
>  <Catalog ID>
Z2974687803

>  <Plate_ID>
2026983-X50-03

>  <Well>
F06

>  <V, µL>
50

>  <Conc, mM>
10

>  <Formula>
C17H19N5O2

>  <MW>
325.3651

>  <Purity>
98.67

>  <PO>
5A-64168

>  <MW_salt>
0

>  <Stereochem.data>
Achiral

>  <Geometric.isomer>
None

>  <Chemical name>
1-tert-butyl-5-{[(1,6-naphthyridin-4-yl)amino]methyl}-1,2,3,4-tetrahydropyrimidine-2,4-dione

>  <ClogP>
1,006

>  <logS>
-2,232

>  <HBD>
2

>  <HBA>
5

>  <TPSA>
87,22

>  <RotBonds>
4

$$$$

  Mrv1925 04172511352D          

 21 22  0  0  0  0            999 V2000
    0.2093    7.0625    0.0000 C   0  0  0  0  0  0  0  0  0  0  0  0
   -0.5052    6.6500    0.0000 N   0  0  0  0  0  0  0  0  0  0  0  0
   -0.5052    5.8250    0.0000 C   0  0  0  0  0  0  0  0  0  0  0  0
   -1.2197    5.4125    0.0000 C   0  0  0  0  0  0  0  0  0  0  0  0
   -1.2197    4.5875    0.0000 C   0  0  0  0  0  0  0  0  0  0  0  0
   -0.5052    4.1750    0.0000 O   0  0  0  0  0  0  0  0  0  0  0  0
   -1.9341    4.1750    0.0000 N   0  0  0  0  0  0  0  0  0  0  0  0
   -2.6486    4.5875    0.0000 C   0  0  0  0  0  0  0  0  0  0  0  0
   -3.3631    4.1750    0.0000 C   0  0  0  0  0  0  0  0  0  0  0  0
   -4.0776    3.7625    0.0000 F   0  0  0  0  0  0  0  0  0  0  0  0
   -2.9506    3.4606    0.0000 F   0  0  0  0  0  0  0  0  0  0  0  0
   -3.7756    4.8895    0.0000 F   0  0  0  0  0  0  0  0  0  0  0  0
   -1.9341    3.3500    0.0000 C   0  0  0  0  0  0  0  0  0  0  0  0
   -1.3508    2.7667    0.0000 C   0  0  0  0  0  0  0  0  0  0  0  0
   -1.9341    2.1833    0.0000 C   0  0  0  0  0  0  0  0  0  0  0  0
   -2.5175    2.7667    0.0000 C   0  0  0  0  0  0  0  0  0  0  0  0
   -1.9341    5.8250    0.0000 C   0  0  0  0  0  0  0  0  0  0  0  0
   -2.6486    5.4125    0.0000 O   0  0  0  0  0  0  0  0  0  0  0  0
   -1.9341    6.6500    0.0000 N   0  0  0  0  0  0  0  0  0  0  0  0
   -1.2197    7.0625    0.0000 C   0  0  0  0  0  0  0  0  0  0  0  0
   -1.2197    7.8875    0.0000 O   0  0  0  0  0  0  0  0  0  0  0  0
  1  2  1  0  0  0  0
  2  3  1  0  0  0  0
  3  4  2  0  0  0  0
  4  5  1  0  0  0  0
  5  6  2  0  0  0  0
  5  7  1  0  0  0  0
  7  8  1  0  0  0  0
  8  9  1  0  0  0  0
  9 10  1  0  0  0  0
  9 11  1  0  0  0  0
  9 12  1  0  0  0  0
  7 13  1  0  0  0  0
 13 14  1  0  0  0  0
 14 15  1  0  0  0  0
 15 16  1  0  0  0  0
 13 16  1  0  0  0  0
  4 17  1  0  0  0  0
 17 18  2  0  0  0  0
 17 19  1  0  0  0  0
 19 20  1  0  0  0  0
  2 20  1  0  0  0  0
 20 21  2  0  0  0  0
M  END
>  <Catalog ID>
Z1349594474

>  <Plate_ID>
2026983-X50-03

>  <Well>
G06

>  <V, µL>
50

>  <Conc, mM>
10

>  <Formula>
C12H14F3N3O3

>  <MW>
305.2531

>  <Purity>
100

>  <PO>
5A-64168

>  <MW_salt>
0

>  <Stereochem.data>
Achiral

>  <Geometric.isomer>
None

>  <Chemical name>
N-cyclobutyl-1-methyl-2,4-dioxo-N-(2,2,2-trifluoroethyl)-1,2,3,4-tetrahydropyrimidine-5-carboxamide

>  <ClogP>
-0,12

>  <logS>
-3,185

>  <HBD>
1

>  <HBA>
3

>  <TPSA>
69,72

>  <RotBonds>
4

$$$$

  Mrv1925 04172511352D          

 21 22  0  0  0  0            999 V2000
    0.0000   -4.4667    0.0000 C   0  0  0  0  0  0  0  0  0  0  0  0
    0.7145   -4.8792    0.0000 C   0  0  0  0  0  0  0  0  0  0  0  0
    1.4289   -4.4667    0.0000 C   0  0  0  0  0  0  0  0  0  0  0  0
    2.1434   -4.8792    0.0000 N   0  0  0  0  0  0  0  0  0  0  0  0
    2.1434   -5.7042    0.0000 C   0  0  0  0  0  0  0  0  0  0  0  0
    2.8579   -4.4667    0.0000 C   0  0  0  0  0  0  0  0  0  0  0  0
    2.8579   -3.6417    0.0000 O   0  0  0  0  0  0  0  0  0  0  0  0
    3.5724   -4.8792    0.0000 N   0  0  0  0  0  0  0  0  0  0  0  0
    4.3692   -4.6657    0.0000 C   0  0  0  0  0  0  0  0  0  0  0  0
    4.5828   -5.4626    0.0000 C   0  0  0  0  0  0  0  0  0  0  0  0
    3.7859   -5.6761    0.0000 C   0  0  0  0  0  0  0  0  0  0  0  0
    5.2972   -5.8751    0.0000 N   0  0  0  0  0  0  0  0  0  0  0  0
    6.0117   -5.4626    0.0000 C   0  0  0  0  0  0  0  0  0  0  0  0
    6.7262   -5.8751    0.0000 C   0  0  0  0  0  0  0  0  0  0  0  0
    7.4407   -5.4626    0.0000 C   0  0  0  0  0  0  0  0  0  0  0  0
    8.1551   -5.0501    0.0000 N   0  0  0  0  0  0  0  0  0  0  0  0
    6.7262   -6.7001    0.0000 C   0  0  0  0  0  0  0  0  0  0  0  0
    7.4407   -7.1126    0.0000 O   0  0  0  0  0  0  0  0  0  0  0  0
    6.0117   -7.1126    0.0000 N   0  0  0  0  0  0  0  0  0  0  0  0
    5.2972   -6.7001    0.0000 C   0  0  0  0  0  0  0  0  0  0  0  0
    4.5828   -7.1126    0.0000 O   0  0  0  0  0  0  0  0  0  0  0  0
  1  2  1  0  0  0  0
  2  3  1  0  0  0  0
  3  4  1  0  0  0  0
  4  5  1  0  0  0  0
  4  6  1  0  0  0  0
  6  7  2  0  0  0  0
  6  8  1  0  0  0  0
  8  9  1  0  0  0  0
  9 10  1  0  0  0  0
 10 11  1  0  0  0  0
  8 11  1  0  0  0  0
 10 12  1  0  0  0  0
 12 13  1  0  0  0  0
 13 14  2  0  0  0  0
 14 15  1  0  0  0  0
 15 16  3  0  0  0  0
 14 17  1  0  0  0  0
 17 18  2  0  0  0  0
 17 19  1  0  0  0  0
 19 20  1  0  0  0  0
 12 20  1  0  0  0  0
 20 21  2  0  0  0  0
M  END
>  <Catalog ID>
Z3290436454

>  <Plate_ID>
2026983-X50-03

>  <Well>
H06

>  <V, µL>
50

>  <Conc, mM>
10

>  <Formula>
C13H17N5O3

>  <MW>
291.3058

>  <Purity>
100

>  <PO>
5A-64168

>  <MW_salt>
0

>  <Stereochem.data>
Achiral

>  <Geometric.isomer>
None

>  <Chemical name>
3-(5-cyano-2,4-dioxo-1,2,3,4-tetrahydropyrimidin-1-yl)-N-methyl-N-propylazetidine-1-carboxamide

>  <ClogP>
0,457

>  <logS>
-2,393

>  <HBD>
1

>  <HBA>
4

>  <TPSA>
96,75

>  <RotBonds>
3

$$$$

  Mrv1925 04172511352D          

 25 28  0  0  0  0            999 V2000
    3.2789    3.7125    0.0000 C   0  0  0  0  0  0  0  0  0  0  0  0
    3.9934    3.3000    0.0000 C   0  0  0  0  0  0  0  0  0  0  0  0
    4.7079    3.7125    0.0000 C   0  0  0  0  0  0  0  0  0  0  0  0
    5.4223    4.1250    0.0000 N   0  0  0  0  0  0  0  0  0  0  0  0
    3.9934    2.4750    0.0000 C   0  0  0  0  0  0  0  0  0  0  0  0
    3.2789    2.0625    0.0000 N   0  0  0  0  0  0  0  0  0  0  0  0
    3.2789    1.2375    0.0000 C   0  0  0  0  0  0  0  0  0  0  0  0
    3.9934    0.8250    0.0000 N   0  0  0  0  0  0  0  0  0  0  0  0
    3.9934    0.0000    0.0000 C   0  0  0  0  0  0  0  0  0  0  0  0
    3.2789   -0.4125    0.0000 N   0  0  0  0  0  0  0  0  0  0  0  0
    2.5645    0.0000    0.0000 C   0  0  0  0  0  0  0  0  0  0  0  0
    2.5645    0.8250    0.0000 C   0  0  0  0  0  0  0  0  0  0  0  0
    1.7798    1.0799    0.0000 N   0  0  0  0  0  0  0  0  0  0  0  0
    1.2949    0.4125    0.0000 C   0  0  0  0  0  0  0  0  0  0  0  0
    1.7798   -0.2549    0.0000 N   0  0  0  0  0  0  0  0  0  0  0  0
    1.5249   -1.0396    0.0000 C   0  0  0  0  0  0  0  0  0  0  0  0
    2.0769   -1.6527    0.0000 C   0  0  0  0  0  0  0  0  0  0  0  0
    1.4095   -2.1376    0.0000 O   0  0  0  0  0  0  0  0  0  0  0  0
    2.6290   -1.0396    0.0000 C   0  0  0  0  0  0  0  0  0  0  0  0
    3.3826   -1.3751    0.0000 C   0  0  0  0  0  0  0  0  0  0  0  0
    3.2964   -2.1956    0.0000 O   0  0  0  0  0  0  0  0  0  0  0  0
    2.4894   -2.3671    0.0000 C   0  0  0  0  0  0  0  0  0  0  0  0
    2.5645    2.4750    0.0000 C   0  0  0  0  0  0  0  0  0  0  0  0
    1.7395    2.4750    0.0000 C   0  0  0  0  0  0  0  0  0  0  0  0
    2.1520    3.1895    0.0000 C   0  0  0  0  0  0  0  0  0  0  0  0
  1  2  1  0  0  0  0
  2  3  1  0  0  0  0
  3  4  3  0  0  0  0
  2  5  1  0  0  0  0
  5  6  1  0  0  0  0
  6  7  1  0  0  0  0
  7  8  2  0  0  0  0
  8  9  1  0  0  0  0
  9 10  2  0  0  0  0
 10 11  1  0  0  0  0
 11 12  2  0  0  0  0
  7 12  1  0  0  0  0
 12 13  1  0  0  0  0
 13 14  2  0  0  0  0
 14 15  1  0  0  0  0
 11 15  1  0  0  0  0
 15 16  1  0  0  0  0
 16 17  1  0  0  0  0
 17 18  1  0  0  0  0
 17 19  1  0  0  0  0
 19 20  1  0  0  0  0
 20 21  1  0  0  0  0
 21 22  1  0  0  0  0
 17 22  1  0  0  0  0
  6 23  1  0  0  0  0
 23 24  1  0  0  0  0
 24 25  1  0  0  0  0
 23 25  1  0  0  0  0
M  END
>  <Catalog ID>
Z2760959604

>  <Plate_ID>
2026983-X50-03

>  <Well>
A07

>  <V, µL>
50

>  <Conc, mM>
10

>  <Formula>
C17H22N6O2

>  <MW>
342.3956

>  <Purity>
100

>  <PO>
5A-64168

>  <MW_salt>
0

>  <Stereochem.data>
Diastereomeric mixture

>  <Geometric.isomer>
None

>  <Chemical name>
3-[cyclopropyl({9-[(3-hydroxyoxolan-3-yl)methyl]-9H-purin-6-yl})amino]-2-methylpropanenitrile

>  <ClogP>
0,052

>  <logS>
-3,074

>  <HBD>
1

>  <HBA>
7

>  <TPSA>
100,09

>  <RotBonds>
6

$$$$

  Mrv1925 04172511352D          

 27 29  0  0  0  0            999 V2000
   -2.1434   -3.7125    0.0000 C   0  0  0  0  0  0  0  0  0  0  0  0
   -1.4289   -3.3000    0.0000 C   0  0  0  0  0  0  0  0  0  0  0  0
   -1.4289   -2.4750    0.0000 C   0  0  0  0  0  0  0  0  0  0  0  0
   -0.7145   -3.7125    0.0000 C   0  0  0  0  0  0  0  0  0  0  0  0
   -0.7145   -4.5375    0.0000 O   0  0  0  0  0  0  0  0  0  0  0  0
    0.0000   -3.3000    0.0000 N   0  0  0  0  0  0  0  0  0  0  0  0
    0.7145   -3.7125    0.0000 C   0  0  0  0  0  0  0  0  0  0  0  0
    1.4289   -3.3000    0.0000 C   0  0  0  0  0  0  0  0  0  0  0  0
    2.1434   -3.7125    0.0000 N   0  0  0  0  0  0  0  0  0  0  0  0
    2.1434   -4.5375    0.0000 C   0  0  0  0  0  0  0  0  0  0  0  0
    2.8579   -3.3000    0.0000 C   0  0  0  0  0  0  0  0  0  0  0  0
    2.8579   -2.4750    0.0000 N   0  0  0  0  0  0  0  0  0  0  0  0
    3.5724   -2.0625    0.0000 C   0  0  0  0  0  0  0  0  0  0  0  0
    4.2868   -2.4750    0.0000 N   0  0  0  0  0  0  0  0  0  0  0  0
    4.2868   -3.3000    0.0000 C   0  0  0  0  0  0  0  0  0  0  0  0
    3.5724   -3.7125    0.0000 C   0  0  0  0  0  0  0  0  0  0  0  0
    3.7439   -4.5195    0.0000 N   0  0  0  0  0  0  0  0  0  0  0  0
    4.5644   -4.6057    0.0000 C   0  0  0  0  0  0  0  0  0  0  0  0
    4.8999   -3.8520    0.0000 N   0  0  0  0  0  0  0  0  0  0  0  0
    5.7069   -3.6805    0.0000 C   0  0  0  0  0  0  0  0  0  0  0  0
    6.1562   -2.9886    0.0000 C   0  0  0  0  0  0  0  0  0  0  0  0
    6.8481   -3.4379    0.0000 C   0  0  0  0  0  0  0  0  0  0  0  0
    7.2974   -2.7460    0.0000 C   0  0  0  0  0  0  0  0  0  0  0  0
    6.9229   -2.0109    0.0000 O   0  0  0  0  0  0  0  0  0  0  0  0
    7.5400   -3.8873    0.0000 C   0  0  0  0  0  0  0  0  0  0  0  0
    7.4968   -4.7111    0.0000 O   0  0  0  0  0  0  0  0  0  0  0  0
    6.3988   -4.1298    0.0000 C   0  0  0  0  0  0  0  0  0  0  0  0
  1  2  1  0  0  0  0
  2  3  1  0  0  0  0
  2  4  1  0  0  0  0
  4  5  2  0  0  0  0
  4  6  1  0  0  0  0
  6  7  1  0  0  0  0
  7  8  1  0  0  0  0
  8  9  1  0  0  0  0
  9 10  1  0  0  0  0
  9 11  1  0  0  0  0
 11 12  1  0  0  0  0
 12 13  2  0  0  0  0
 13 14  1  0  0  0  0
 14 15  2  0  0  0  0
 15 16  1  0  0  0  0
 11 16  2  0  0  0  0
 16 17  1  0  0  0  0
 17 18  2  0  0  0  0
 18 19  1  0  0  0  0
 15 19  1  0  0  0  0
 19 20  1  0  0  0  0
 20 21  1  0  0  0  0
 21 22  1  0  0  0  0
 22 23  1  0  0  0  0
 23 24  1  0  0  0  0
 22 25  1  0  0  0  0
 25 26  1  0  0  0  0
 22 27  1  0  0  0  0
 20 27  1  0  0  0  0
M  END
>  <Catalog ID>
Z2760960144

>  <Plate_ID>
2026983-X50-03

>  <Well>
B07

>  <V, µL>
50

>  <Conc, mM>
10

>  <Formula>
C18H28N6O3

>  <MW>
376.4533

>  <Purity>
95.72

>  <PO>
5A-64168

>  <MW_salt>
0

>  <Stereochem.data>
Achiral

>  <Geometric.isomer>
None

>  <Chemical name>
N-[2-({9-[3,3-bis(hydroxymethyl)cyclobutyl]-9H-purin-6-yl}(methyl)amino)ethyl]-2-methylpropanamide

>  <ClogP>
-0,823

>  <logS>
-2,002

>  <HBD>
3

>  <HBA>
7

>  <TPSA>
116,4

>  <RotBonds>
8

$$$$

  Mrv1925 04172511352D          

 29 32  0  0  0  0            999 V2000
    0.8646   -3.5628    0.0000 C   0  0  0  0  0  0  0  0  0  0  0  0
    0.1544   -3.1429    0.0000 C   0  0  0  0  0  0  0  0  0  0  0  0
   -0.6027   -3.4705    0.0000 O   0  0  0  0  0  0  0  0  0  0  0  0
   -1.1483   -2.8517    0.0000 C   0  0  0  0  0  0  0  0  0  0  0  0
   -0.7283   -2.1416    0.0000 C   0  0  0  0  0  0  0  0  0  0  0  0
    0.0768   -2.3215    0.0000 C   0  0  0  0  0  0  0  0  0  0  0  0
    0.3481   -1.5424    0.0000 O   0  0  0  0  0  0  0  0  0  0  0  0
    0.8838   -2.1500    0.0000 C   0  0  0  0  0  0  0  0  0  0  0  0
    1.1387   -1.3654    0.0000 N   0  0  0  0  0  0  0  0  0  0  0  0
    0.6538   -0.6979    0.0000 C   0  0  0  0  0  0  0  0  0  0  0  0
    1.1387   -0.0305    0.0000 N   0  0  0  0  0  0  0  0  0  0  0  0
    1.9233   -0.2854    0.0000 C   0  0  0  0  0  0  0  0  0  0  0  0
    2.6378    0.1271    0.0000 C   0  0  0  0  0  0  0  0  0  0  0  0
    3.3523   -0.2854    0.0000 N   0  0  0  0  0  0  0  0  0  0  0  0
    3.3523   -1.1104    0.0000 C   0  0  0  0  0  0  0  0  0  0  0  0
    2.6378   -1.5229    0.0000 N   0  0  0  0  0  0  0  0  0  0  0  0
    1.9233   -1.1104    0.0000 C   0  0  0  0  0  0  0  0  0  0  0  0
    2.6378    0.9521    0.0000 N   0  0  0  0  0  0  0  0  0  0  0  0
    3.3523    1.3646    0.0000 C   0  0  0  0  0  0  0  0  0  0  0  0
    1.9233    1.3646    0.0000 C   0  0  0  0  0  0  0  0  0  0  0  0
    1.9233    2.1896    0.0000 C   0  0  0  0  0  0  0  0  0  0  0  0
    2.6378    2.6021    0.0000 O   0  0  0  0  0  0  0  0  0  0  0  0
    1.2089    2.6021    0.0000 C   0  0  0  0  0  0  0  0  0  0  0  0
    1.2089    3.4271    0.0000 N   0  0  0  0  0  0  0  0  0  0  0  0
    0.4944    3.8396    0.0000 C   0  0  0  0  0  0  0  0  0  0  0  0
    0.4944    4.6646    0.0000 C   0  0  0  0  0  0  0  0  0  0  0  0
    1.2089    5.0771    0.0000 O   0  0  0  0  0  0  0  0  0  0  0  0
    1.9233    4.6646    0.0000 C   0  0  0  0  0  0  0  0  0  0  0  0
    1.9233    3.8396    0.0000 C   0  0  0  0  0  0  0  0  0  0  0  0
  1  2  1  0  0  0  0
  2  3  1  0  0  0  0
  3  4  1  0  0  0  0
  4  5  1  0  0  0  0
  5  6  1  0  0  0  0
  2  6  1  0  0  0  0
  6  7  1  0  0  0  0
  6  8  1  0  0  0  0
  8  9  1  0  0  0  0
  9 10  1  0  0  0  0
 10 11  2  0  0  0  0
 11 12  1  0  0  0  0
 12 13  1  0  0  0  0
 13 14  2  0  0  0  0
 14 15  1  0  0  0  0
 15 16  2  0  0  0  0
 16 17  1  0  0  0  0
 12 17  2  0  0  0  0
  9 17  1  0  0  0  0
 13 18  1  0  0  0  0
 18 19  1  0  0  0  0
 18 20  1  0  0  0  0
 20 21  1  0  0  0  0
 21 22  1  0  0  0  0
 21 23  1  0  0  0  0
 23 24  1  0  0  0  0
 24 25  1  0  0  0  0
 25 26  1  0  0  0  0
 26 27  1  0  0  0  0
 27 28  1  0  0  0  0
 28 29  1  0  0  0  0
 24 29  1  0  0  0  0
M  END
>  <Catalog ID>
Z2760952659

>  <Plate_ID>
2026983-X50-03

>  <Well>
C07

>  <V, µL>
50

>  <Conc, mM>
10

>  <Formula>
C19H30N6O4

>  <MW>
406.4793

>  <Purity>
91.2

>  <PO>
5A-64168

>  <MW_salt>
0

>  <Stereochem.data>
Diastereomeric mixture

>  <Geometric.isomer>
None

>  <Chemical name>
3-[(6-{[2-hydroxy-3-(morpholin-4-yl)propyl](methyl)amino}-9H-purin-9-yl)methyl]-2-methyloxolan-3-ol

>  <ClogP>
-0,46

>  <logS>
-1,691

>  <HBD>
2

>  <HBA>
9

>  <TPSA>
109

>  <RotBonds>
7

$$$$

  Mrv1925 04172511352D          

 29 33  0  0  0  0            999 V2000
    0.8646   -3.5628    0.0000 C   0  0  0  0  0  0  0  0  0  0  0  0
    0.1544   -3.1429    0.0000 C   0  0  0  0  0  0  0  0  0  0  0  0
   -0.6027   -3.4705    0.0000 O   0  0  0  0  0  0  0  0  0  0  0  0
   -1.1483   -2.8517    0.0000 C   0  0  0  0  0  0  0  0  0  0  0  0
   -0.7283   -2.1416    0.0000 C   0  0  0  0  0  0  0  0  0  0  0  0
    0.0768   -2.3215    0.0000 C   0  0  0  0  0  0  0  0  0  0  0  0
    0.3481   -1.5424    0.0000 O   0  0  0  0  0  0  0  0  0  0  0  0
    0.8838   -2.1500    0.0000 C   0  0  0  0  0  0  0  0  0  0  0  0
    1.1387   -1.3654    0.0000 N   0  0  0  0  0  0  0  0  0  0  0  0
    0.6538   -0.6979    0.0000 C   0  0  0  0  0  0  0  0  0  0  0  0
    1.1387   -0.0305    0.0000 N   0  0  0  0  0  0  0  0  0  0  0  0
    1.9233   -0.2854    0.0000 C   0  0  0  0  0  0  0  0  0  0  0  0
    2.6378    0.1271    0.0000 C   0  0  0  0  0  0  0  0  0  0  0  0
    3.3523   -0.2854    0.0000 N   0  0  0  0  0  0  0  0  0  0  0  0
    3.3523   -1.1104    0.0000 C   0  0  0  0  0  0  0  0  0  0  0  0
    2.6378   -1.5229    0.0000 N   0  0  0  0  0  0  0  0  0  0  0  0
    1.9233   -1.1104    0.0000 C   0  0  0  0  0  0  0  0  0  0  0  0
    2.6378    0.9521    0.0000 N   0  0  0  0  0  0  0  0  0  0  0  0
    1.9233    1.3646    0.0000 C   0  0  0  0  0  0  0  0  0  0  0  0
    1.9233    2.1896    0.0000 C   0  0  0  0  0  0  0  0  0  0  0  0
    2.6378    2.6021    0.0000 O   0  0  0  0  0  0  0  0  0  0  0  0
    3.3523    2.1896    0.0000 C   0  0  0  0  0  0  0  0  0  0  0  0
    4.0668    2.6021    0.0000 C   0  0  0  0  0  0  0  0  0  0  0  0
    4.7812    2.1896    0.0000 O   0  0  0  0  0  0  0  0  0  0  0  0
    5.4957    2.6021    0.0000 C   0  0  0  0  0  0  0  0  0  0  0  0
    6.2102    2.1896    0.0000 C   0  0  0  0  0  0  0  0  0  0  0  0
    7.0352    2.1896    0.0000 C   0  0  0  0  0  0  0  0  0  0  0  0
    6.6227    1.4751    0.0000 C   0  0  0  0  0  0  0  0  0  0  0  0
    3.3523    1.3646    0.0000 C   0  0  0  0  0  0  0  0  0  0  0  0
  1  2  1  0  0  0  0
  2  3  1  0  0  0  0
  3  4  1  0  0  0  0
  4  5  1  0  0  0  0
  5  6  1  0  0  0  0
  2  6  1  0  0  0  0
  6  7  1  0  0  0  0
  6  8  1  0  0  0  0
  8  9  1  0  0  0  0
  9 10  1  0  0  0  0
 10 11  2  0  0  0  0
 11 12  1  0  0  0  0
 12 13  1  0  0  0  0
 13 14  2  0  0  0  0
 14 15  1  0  0  0  0
 15 16  2  0  0  0  0
 16 17  1  0  0  0  0
 12 17  2  0  0  0  0
  9 17  1  0  0  0  0
 13 18  1  0  0  0  0
 18 19  1  0  0  0  0
 19 20  1  0  0  0  0
 20 21  1  0  0  0  0
 21 22  1  0  0  0  0
 22 23  1  0  0  0  0
 23 24  1  0  0  0  0
 24 25  1  0  0  0  0
 25 26  1  0  0  0  0
 26 27  1  0  0  0  0
 27 28  1  0  0  0  0
 26 28  1  0  0  0  0
 22 29  1  0  0  0  0
 18 29  1  0  0  0  0
M  END
>  <Catalog ID>
Z2760963793

>  <Plate_ID>
2026983-X50-03

>  <Well>
D07

>  <V, µL>
50

>  <Conc, mM>
10

>  <Formula>
C20H29N5O4

>  <MW>
403.4754

>  <Purity>
100

>  <PO>
5A-64168

>  <MW_salt>
0

>  <Stereochem.data>
Diastereomeric mixture

>  <Geometric.isomer>
None

>  <Chemical name>
3-[(6-{2-[(cyclopropylmethoxy)methyl]morpholin-4-yl}-9H-purin-9-yl)methyl]-2-methyloxolan-3-ol

>  <ClogP>
0,337

>  <logS>
-3,173

>  <HBD>
1

>  <HBA>
8

>  <TPSA>
94,76

>  <RotBonds>
7

$$$$

  Mrv1925 04172511352D          

 27 30  0  0  0  0            999 V2000
    2.5645    5.7750    0.0000 C   0  0  0  0  0  0  0  0  0  0  0  0
    2.5645    4.9500    0.0000 C   0  0  0  0  0  0  0  0  0  0  0  0
    1.8500    4.5375    0.0000 O   0  0  0  0  0  0  0  0  0  0  0  0
    3.2789    4.5375    0.0000 C   0  0  0  0  0  0  0  0  0  0  0  0
    3.2789    3.7125    0.0000 N   0  0  0  0  0  0  0  0  0  0  0  0
    3.9934    3.3000    0.0000 C   0  0  0  0  0  0  0  0  0  0  0  0
    3.9934    2.4750    0.0000 C   0  0  0  0  0  0  0  0  0  0  0  0
    3.2789    2.0625    0.0000 N   0  0  0  0  0  0  0  0  0  0  0  0
    2.5645    2.4750    0.0000 C   0  0  0  0  0  0  0  0  0  0  0  0
    2.5645    3.3000    0.0000 C   0  0  0  0  0  0  0  0  0  0  0  0
    1.8500    3.7125    0.0000 C   0  0  0  0  0  0  0  0  0  0  0  0
    3.2789    1.2375    0.0000 C   0  0  0  0  0  0  0  0  0  0  0  0
    3.9934    0.8250    0.0000 N   0  0  0  0  0  0  0  0  0  0  0  0
    3.9934    0.0000    0.0000 C   0  0  0  0  0  0  0  0  0  0  0  0
    3.2789   -0.4125    0.0000 N   0  0  0  0  0  0  0  0  0  0  0  0
    2.5645    0.0000    0.0000 C   0  0  0  0  0  0  0  0  0  0  0  0
    2.5645    0.8250    0.0000 C   0  0  0  0  0  0  0  0  0  0  0  0
    1.7798    1.0799    0.0000 N   0  0  0  0  0  0  0  0  0  0  0  0
    1.2949    0.4125    0.0000 C   0  0  0  0  0  0  0  0  0  0  0  0
    1.7798   -0.2549    0.0000 N   0  0  0  0  0  0  0  0  0  0  0  0
    1.5249   -1.0396    0.0000 C   0  0  0  0  0  0  0  0  0  0  0  0
    2.0769   -1.6527    0.0000 C   0  0  0  0  0  0  0  0  0  0  0  0
    1.4095   -2.1376    0.0000 O   0  0  0  0  0  0  0  0  0  0  0  0
    2.6290   -1.0396    0.0000 C   0  0  0  0  0  0  0  0  0  0  0  0
    3.3826   -1.3751    0.0000 C   0  0  0  0  0  0  0  0  0  0  0  0
    3.2964   -2.1956    0.0000 O   0  0  0  0  0  0  0  0  0  0  0  0
    2.4894   -2.3671    0.0000 C   0  0  0  0  0  0  0  0  0  0  0  0
  1  2  1  0  0  0  0
  2  3  1  0  0  0  0
  2  4  1  0  0  0  0
  4  5  1  0  0  0  0
  5  6  1  0  0  0  0
  6  7  1  0  0  0  0
  7  8  1  0  0  0  0
  8  9  1  0  0  0  0
  9 10  1  0  0  0  0
  5 10  1  0  0  0  0
 10 11  1  0  0  0  0
  8 12  1  0  0  0  0
 12 13  1  0  0  0  0
 13 14  2  0  0  0  0
 14 15  1  0  0  0  0
 15 16  2  0  0  0  0
 16 17  1  0  0  0  0
 12 17  2  0  0  0  0
 17 18  1  0  0  0  0
 18 19  2  0  0  0  0
 19 20  1  0  0  0  0
 16 20  1  0  0  0  0
 20 21  1  0  0  0  0
 21 22  1  0  0  0  0
 22 23  1  0  0  0  0
 22 24  1  0  0  0  0
 24 25  1  0  0  0  0
 25 26  1  0  0  0  0
 26 27  1  0  0  0  0
 22 27  1  0  0  0  0
M  END
>  <Catalog ID>
Z2760946703

>  <Plate_ID>
2026983-X50-03

>  <Well>
E07

>  <V, µL>
50

>  <Conc, mM>
10

>  <Formula>
C18H28N6O3

>  <MW>
376.4533

>  <Purity>
100

>  <PO>
5A-64168

>  <MW_salt>
0

>  <Stereochem.data>
Diastereomeric mixture

>  <Geometric.isomer>
None

>  <Chemical name>
3-({6-[4-(2-hydroxypropyl)-3-methylpiperazin-1-yl]-9H-purin-9-yl}methyl)oxolan-3-ol

>  <ClogP>
-0,27

>  <logS>
-2,197

>  <HBD>
2

>  <HBA>
8

>  <TPSA>
99,77

>  <RotBonds>
5

$$$$

  Mrv1925 04172511352D          

 25 27  0  0  0  0            999 V2000
    2.5645    2.4750    0.0000 C   0  0  0  0  0  0  0  0  0  0  0  0
    3.2789    2.0625    0.0000 N   0  0  0  0  0  0  0  0  0  0  0  0
    3.9934    2.4750    0.0000 C   0  0  0  0  0  0  0  0  0  0  0  0
    3.9934    3.3000    0.0000 C   0  0  0  0  0  0  0  0  0  0  0  0
    4.8184    3.3000    0.0000 C   0  0  0  0  0  0  0  0  0  0  0  0
    3.9934    4.1250    0.0000 C   0  0  0  0  0  0  0  0  0  0  0  0
    4.7079    4.5375    0.0000 O   0  0  0  0  0  0  0  0  0  0  0  0
    3.1684    3.3000    0.0000 C   0  0  0  0  0  0  0  0  0  0  0  0
    2.7559    4.0145    0.0000 O   0  0  0  0  0  0  0  0  0  0  0  0
    3.2789    1.2375    0.0000 C   0  0  0  0  0  0  0  0  0  0  0  0
    3.9934    0.8250    0.0000 N   0  0  0  0  0  0  0  0  0  0  0  0
    3.9934    0.0000    0.0000 C   0  0  0  0  0  0  0  0  0  0  0  0
    3.2789   -0.4125    0.0000 N   0  0  0  0  0  0  0  0  0  0  0  0
    2.5645    0.0000    0.0000 C   0  0  0  0  0  0  0  0  0  0  0  0
    2.5645    0.8250    0.0000 C   0  0  0  0  0  0  0  0  0  0  0  0
    1.7798    1.0799    0.0000 N   0  0  0  0  0  0  0  0  0  0  0  0
    1.2949    0.4125    0.0000 C   0  0  0  0  0  0  0  0  0  0  0  0
    1.7798   -0.2549    0.0000 N   0  0  0  0  0  0  0  0  0  0  0  0
    1.5249   -1.0396    0.0000 C   0  0  0  0  0  0  0  0  0  0  0  0
    2.0769   -1.6527    0.0000 C   0  0  0  0  0  0  0  0  0  0  0  0
    1.4095   -2.1376    0.0000 O   0  0  0  0  0  0  0  0  0  0  0  0
    2.6290   -1.0396    0.0000 C   0  0  0  0  0  0  0  0  0  0  0  0
    3.3826   -1.3751    0.0000 C   0  0  0  0  0  0  0  0  0  0  0  0
    3.2964   -2.1956    0.0000 O   0  0  0  0  0  0  0  0  0  0  0  0
    2.4894   -2.3671    0.0000 C   0  0  0  0  0  0  0  0  0  0  0  0
  1  2  1  0  0  0  0
  2  3  1  0  0  0  0
  3  4  1  0  0  0  0
  4  5  1  0  0  0  0
  4  6  1  0  0  0  0
  6  7  1  0  0  0  0
  4  8  1  0  0  0  0
  8  9  1  0  0  0  0
  2 10  1  0  0  0  0
 10 11  1  0  0  0  0
 11 12  2  0  0  0  0
 12 13  1  0  0  0  0
 13 14  2  0  0  0  0
 14 15  1  0  0  0  0
 10 15  2  0  0  0  0
 15 16  1  0  0  0  0
 16 17  2  0  0  0  0
 17 18  1  0  0  0  0
 14 18  1  0  0  0  0
 18 19  1  0  0  0  0
 19 20  1  0  0  0  0
 20 21  1  0  0  0  0
 20 22  1  0  0  0  0
 22 23  1  0  0  0  0
 23 24  1  0  0  0  0
 24 25  1  0  0  0  0
 20 25  1  0  0  0  0
M  END
>  <Catalog ID>
Z2760959682

>  <Plate_ID>
2026983-X50-03

>  <Well>
F07

>  <V, µL>
50

>  <Conc, mM>
10

>  <Formula>
C16H25N5O4

>  <MW>
351.4008

>  <Purity>
100

>  <PO>
5A-64168

>  <MW_salt>
0

>  <Stereochem.data>
Racemic or presumed racemic or meso

>  <Geometric.isomer>
None

>  <Chemical name>
2-[({9-[(3-hydroxyoxolan-3-yl)methyl]-9H-purin-6-yl}(methyl)amino)methyl]-2-methylpropane-1,3-diol

>  <ClogP>
-0,733

>  <logS>
-1,514

>  <HBD>
3

>  <HBA>
8

>  <TPSA>
116,76

>  <RotBonds>
7

$$$$

  Mrv1925 04172511352D          

 30 34  0  0  0  0            999 V2000
    3.2789    7.0125    0.0000 C   0  0  0  0  0  0  0  0  0  0  0  0
    3.2789    6.1875    0.0000 C   0  0  0  0  0  0  0  0  0  0  0  0
    3.9934    5.7750    0.0000 C   0  0  0  0  0  0  0  0  0  0  0  0
    3.9934    4.9500    0.0000 C   0  0  0  0  0  0  0  0  0  0  0  0
    3.2789    4.5375    0.0000 N   0  0  0  0  0  0  0  0  0  0  0  0
    2.5645    4.9500    0.0000 C   0  0  0  0  0  0  0  0  0  0  0  0
    2.5645    5.7750    0.0000 C   0  0  0  0  0  0  0  0  0  0  0  0
    1.8500    5.3625    0.0000 C   0  0  0  0  0  0  0  0  0  0  0  0
    1.1355    5.7750    0.0000 C   0  0  0  0  0  0  0  0  0  0  0  0
    1.1355    6.6000    0.0000 C   0  0  0  0  0  0  0  0  0  0  0  0
    1.8500    7.0125    0.0000 C   0  0  0  0  0  0  0  0  0  0  0  0
    2.5645    6.6000    0.0000 C   0  0  0  0  0  0  0  0  0  0  0  0
    3.2789    3.7125    0.0000 C   0  0  0  0  0  0  0  0  0  0  0  0
    3.9934    3.3000    0.0000 N   0  0  0  0  0  0  0  0  0  0  0  0
    3.9934    2.4750    0.0000 C   0  0  0  0  0  0  0  0  0  0  0  0
    3.2789    2.0625    0.0000 N   0  0  0  0  0  0  0  0  0  0  0  0
    2.5645    2.4750    0.0000 C   0  0  0  0  0  0  0  0  0  0  0  0
    2.5645    3.3000    0.0000 C   0  0  0  0  0  0  0  0  0  0  0  0
    1.7798    3.5549    0.0000 N   0  0  0  0  0  0  0  0  0  0  0  0
    1.2949    2.8875    0.0000 C   0  0  0  0  0  0  0  0  0  0  0  0
    1.7798    2.2201    0.0000 N   0  0  0  0  0  0  0  0  0  0  0  0
    1.5249    1.4354    0.0000 C   0  0  0  0  0  0  0  0  0  0  0  0
    2.0769    0.8223    0.0000 C   0  0  0  0  0  0  0  0  0  0  0  0
    1.3773    0.3852    0.0000 C   0  0  0  0  0  0  0  0  0  0  0  0
    1.4061   -0.4393    0.0000 O   0  0  0  0  0  0  0  0  0  0  0  0
    2.5848    1.4725    0.0000 C   0  0  0  0  0  0  0  0  0  0  0  0
    3.4018    1.3576    0.0000 C   0  0  0  0  0  0  0  0  0  0  0  0
    3.7109    0.5927    0.0000 O   0  0  0  0  0  0  0  0  0  0  0  0
    3.2030   -0.0574    0.0000 C   0  0  0  0  0  0  0  0  0  0  0  0
    2.3860    0.0574    0.0000 C   0  0  0  0  0  0  0  0  0  0  0  0
  1  2  1  0  0  0  0
  2  3  1  0  0  0  0
  3  4  1  0  0  0  0
  4  5  1  0  0  0  0
  5  6  1  0  0  0  0
  6  7  1  0  0  0  0
  2  7  1  0  0  0  0
  7  8  1  0  0  0  0
  8  9  1  0  0  0  0
  9 10  1  0  0  0  0
 10 11  1  0  0  0  0
 11 12  1  0  0  0  0
  7 12  1  0  0  0  0
  5 13  1  0  0  0  0
 13 14  1  0  0  0  0
 14 15  2  0  0  0  0
 15 16  1  0  0  0  0
 16 17  2  0  0  0  0
 17 18  1  0  0  0  0
 13 18  2  0  0  0  0
 18 19  1  0  0  0  0
 19 20  2  0  0  0  0
 20 21  1  0  0  0  0
 17 21  1  0  0  0  0
 21 22  1  0  0  0  0
 22 23  1  0  0  0  0
 23 24  1  0  0  0  0
 24 25  1  0  0  0  0
 23 26  1  0  0  0  0
 26 27  1  0  0  0  0
 27 28  1  0  0  0  0
 28 29  1  0  0  0  0
 29 30  1  0  0  0  0
 23 30  1  0  0  0  0
M  END
>  <Catalog ID>
Z2760964335

>  <Plate_ID>
2026983-X50-03

>  <Well>
G07

>  <V, µL>
50

>  <Conc, mM>
10

>  <Formula>
C23H35N5O2

>  <MW>
413.5563

>  <Purity>
100

>  <PO>
5A-64168

>  <MW_salt>
0

>  <Stereochem.data>
Racemic or presumed racemic or meso

>  <Geometric.isomer>
None

>  <Chemical name>
{4-[(6-{5-methyl-2-azaspiro[5.5]undecan-2-yl}-9H-purin-9-yl)methyl]oxan-4-yl}methanol

>  <ClogP>
2,858

>  <logS>
-4,364

>  <HBD>
1

>  <HBA>
6

>  <TPSA>
76,3

>  <RotBonds>
4

$$$$

  Mrv1925 04172511352D          

 27 30  0  0  0  0            999 V2000
    0.4210    2.0625    0.0000 N   0  0  0  0  0  0  0  0  0  0  0  0
    1.1355    2.4750    0.0000 C   0  0  0  0  0  0  0  0  0  0  0  0
    1.1355    3.3000    0.0000 O   0  0  0  0  0  0  0  0  0  0  0  0
    1.8500    2.0625    0.0000 C   0  0  0  0  0  0  0  0  0  0  0  0
    2.5645    2.4750    0.0000 C   0  0  0  0  0  0  0  0  0  0  0  0
    2.5645    3.3000    0.0000 C   0  0  0  0  0  0  0  0  0  0  0  0
    3.2789    3.7125    0.0000 O   0  0  0  0  0  0  0  0  0  0  0  0
    3.9934    3.3000    0.0000 C   0  0  0  0  0  0  0  0  0  0  0  0
    3.9934    2.4750    0.0000 C   0  0  0  0  0  0  0  0  0  0  0  0
    3.2789    2.0625    0.0000 N   0  0  0  0  0  0  0  0  0  0  0  0
    3.2789    1.2375    0.0000 C   0  0  0  0  0  0  0  0  0  0  0  0
    3.9934    0.8250    0.0000 N   0  0  0  0  0  0  0  0  0  0  0  0
    3.9934    0.0000    0.0000 C   0  0  0  0  0  0  0  0  0  0  0  0
    3.2789   -0.4125    0.0000 N   0  0  0  0  0  0  0  0  0  0  0  0
    2.5645    0.0000    0.0000 C   0  0  0  0  0  0  0  0  0  0  0  0
    2.5645    0.8250    0.0000 C   0  0  0  0  0  0  0  0  0  0  0  0
    1.7798    1.0799    0.0000 N   0  0  0  0  0  0  0  0  0  0  0  0
    1.2949    0.4125    0.0000 C   0  0  0  0  0  0  0  0  0  0  0  0
    1.7798   -0.2549    0.0000 N   0  0  0  0  0  0  0  0  0  0  0  0
    1.5249   -1.0396    0.0000 C   0  0  0  0  0  0  0  0  0  0  0  0
    1.8994   -1.7746    0.0000 C   0  0  0  0  0  0  0  0  0  0  0  0
    1.1644   -2.1492    0.0000 C   0  0  0  0  0  0  0  0  0  0  0  0
    1.5389   -2.8843    0.0000 C   0  0  0  0  0  0  0  0  0  0  0  0
    2.3628   -2.9274    0.0000 O   0  0  0  0  0  0  0  0  0  0  0  0
    0.4293   -2.5237    0.0000 C   0  0  0  0  0  0  0  0  0  0  0  0
   -0.2626   -2.0744    0.0000 O   0  0  0  0  0  0  0  0  0  0  0  0
    0.7898   -1.4141    0.0000 C   0  0  0  0  0  0  0  0  0  0  0  0
  1  2  1  0  0  0  0
  2  3  2  0  0  0  0
  2  4  1  0  0  0  0
  4  5  1  0  0  0  0
  5  6  1  0  0  0  0
  6  7  1  0  0  0  0
  7  8  1  0  0  0  0
  8  9  1  0  0  0  0
  9 10  1  0  0  0  0
  5 10  1  0  0  0  0
 10 11  1  0  0  0  0
 11 12  1  0  0  0  0
 12 13  2  0  0  0  0
 13 14  1  0  0  0  0
 14 15  2  0  0  0  0
 15 16  1  0  0  0  0
 11 16  2  0  0  0  0
 16 17  1  0  0  0  0
 17 18  2  0  0  0  0
 18 19  1  0  0  0  0
 15 19  1  0  0  0  0
 19 20  1  0  0  0  0
 20 21  1  0  0  0  0
 21 22  1  0  0  0  0
 22 23  1  0  0  0  0
 23 24  1  0  0  0  0
 22 25  1  0  0  0  0
 25 26  1  0  0  0  0
 22 27  1  0  0  0  0
 20 27  1  0  0  0  0
M  END
>  <Catalog ID>
Z2760975846

>  <Plate_ID>
2026983-X50-03

>  <Well>
H07

>  <V, µL>
50

>  <Conc, mM>
10

>  <Formula>
C17H24N6O4

>  <MW>
376.4103

>  <Purity>
100

>  <PO>
5A-64168

>  <MW_salt>
0

>  <Stereochem.data>
Racemic or presumed racemic or meso

>  <Geometric.isomer>
None

>  <Chemical name>
2-(4-{9-[3,3-bis(hydroxymethyl)cyclobutyl]-9H-purin-6-yl}morpholin-3-yl)acetamide

>  <ClogP>
-2,576

>  <logS>
-1,589

>  <HBD>
3

>  <HBA>
8

>  <TPSA>
139,62

>  <RotBonds>
6

$$$$

  Mrv1925 04172511352D          

 28 32  0  0  0  0            999 V2000
   -2.2870   -2.1689    0.0000 O   0  0  0  0  0  0  0  0  0  0  0  0
   -3.1039   -2.0541    0.0000 C   0  0  0  0  0  0  0  0  0  0  0  0
   -2.8490   -1.2695    0.0000 C   0  0  0  0  0  0  0  0  0  0  0  0
   -2.0420   -1.0980    0.0000 N   0  0  0  0  0  0  0  0  0  0  0  0
   -1.7065   -0.3443    0.0000 C   0  0  0  0  0  0  0  0  0  0  0  0
   -0.8860   -0.4305    0.0000 N   0  0  0  0  0  0  0  0  0  0  0  0
   -0.7145   -1.2375    0.0000 C   0  0  0  0  0  0  0  0  0  0  0  0
    0.0000   -1.6500    0.0000 C   0  0  0  0  0  0  0  0  0  0  0  0
    0.0000   -2.4750    0.0000 N   0  0  0  0  0  0  0  0  0  0  0  0
   -0.7145   -2.8875    0.0000 C   0  0  0  0  0  0  0  0  0  0  0  0
   -1.4289   -2.4750    0.0000 N   0  0  0  0  0  0  0  0  0  0  0  0
   -1.4289   -1.6500    0.0000 C   0  0  0  0  0  0  0  0  0  0  0  0
    0.7145   -1.2375    0.0000 N   0  0  0  0  0  0  0  0  0  0  0  0
    0.7145   -0.4125    0.0000 C   0  0  0  0  0  0  0  0  0  0  0  0
    1.4289    0.0000    0.0000 C   0  0  0  0  0  0  0  0  0  0  0  0
    2.1434   -0.4125    0.0000 C   0  0  0  0  0  0  0  0  0  0  0  0
    2.1434    0.4125    0.0000 O   0  0  0  0  0  0  0  0  0  0  0  0
    2.8579    0.0000    0.0000 C   0  0  0  0  0  0  0  0  0  0  0  0
    3.5724   -0.4125    0.0000 C   0  0  0  0  0  0  0  0  0  0  0  0
    3.5724   -1.2375    0.0000 C   0  0  0  0  0  0  0  0  0  0  0  0
    2.8579   -1.6500    0.0000 C   0  0  0  0  0  0  0  0  0  0  0  0
    2.1434   -1.2375    0.0000 C   0  0  0  0  0  0  0  0  0  0  0  0
    1.4289   -1.6500    0.0000 C   0  0  0  0  0  0  0  0  0  0  0  0
   -3.0752   -2.8786    0.0000 C   0  0  0  0  0  0  0  0  0  0  0  0
   -3.7748   -3.3158    0.0000 C   0  0  0  0  0  0  0  0  0  0  0  0
   -4.5032   -2.9285    0.0000 O   0  0  0  0  0  0  0  0  0  0  0  0
   -4.5320   -2.1040    0.0000 C   0  0  0  0  0  0  0  0  0  0  0  0
   -3.8324   -1.6668    0.0000 C   0  0  0  0  0  0  0  0  0  0  0  0
  1  2  1  0  0  0  0
  2  3  1  0  0  0  0
  3  4  1  0  0  0  0
  4  5  1  0  0  0  0
  5  6  2  0  0  0  0
  6  7  1  0  0  0  0
  7  8  2  0  0  0  0
  8  9  1  0  0  0  0
  9 10  2  0  0  0  0
 10 11  1  0  0  0  0
 11 12  2  0  0  0  0
  7 12  1  0  0  0  0
  4 12  1  0  0  0  0
  8 13  1  0  0  0  0
 13 14  1  0  0  0  0
 14 15  1  0  0  0  0
 15 16  1  0  0  0  0
 16 17  1  0  0  0  0
 16 18  1  0  0  0  0
 18 19  1  0  0  0  0
 19 20  1  0  0  0  0
 20 21  1  0  0  0  0
 21 22  1  0  0  0  0
 16 22  1  0  0  0  0
 22 23  1  0  0  0  0
 13 23  1  0  0  0  0
  2 24  1  0  0  0  0
 24 25  1  0  0  0  0
 25 26  1  0  0  0  0
 26 27  1  0  0  0  0
 27 28  1  0  0  0  0
  2 28  1  0  0  0  0
M  END
>  <Catalog ID>
Z2760953312

>  <Plate_ID>
2026983-X50-03

>  <Well>
A08

>  <V, µL>
50

>  <Conc, mM>
10

>  <Formula>
C20H29N5O3

>  <MW>
387.476

>  <Purity>
96.87

>  <PO>
5A-64168

>  <MW_salt>
0

>  <Stereochem.data>
Diastereomeric mixture

>  <Geometric.isomer>
Unknown

>  <Chemical name>
2-{9-[(4-hydroxyoxan-4-yl)methyl]-9H-purin-6-yl}-decahydroisoquinolin-4a-ol

>  <ClogP>
-0,215

>  <logS>
-3,802

>  <HBD>
2

>  <HBA>
7

>  <TPSA>
96,53

>  <RotBonds>
3

$$$$

  Mrv1925 04172511352D          

 28 32  0  0  0  0            999 V2000
   -4.6390   -0.2389    0.0000 O   0  0  0  0  0  0  0  0  0  0  0  0
   -4.6821   -1.0627    0.0000 C   0  0  0  0  0  0  0  0  0  0  0  0
   -3.9902   -1.5121    0.0000 C   0  0  0  0  0  0  0  0  0  0  0  0
   -4.4396   -2.2040    0.0000 C   0  0  0  0  0  0  0  0  0  0  0  0
   -4.0650   -2.9391    0.0000 O   0  0  0  0  0  0  0  0  0  0  0  0
   -3.5409   -0.8202    0.0000 C   0  0  0  0  0  0  0  0  0  0  0  0
   -2.8490   -1.2695    0.0000 C   0  0  0  0  0  0  0  0  0  0  0  0
   -3.2983   -1.9614    0.0000 C   0  0  0  0  0  0  0  0  0  0  0  0
   -2.0420   -1.0980    0.0000 N   0  0  0  0  0  0  0  0  0  0  0  0
   -1.7065   -0.3443    0.0000 C   0  0  0  0  0  0  0  0  0  0  0  0
   -0.8860   -0.4305    0.0000 N   0  0  0  0  0  0  0  0  0  0  0  0
   -0.7145   -1.2375    0.0000 C   0  0  0  0  0  0  0  0  0  0  0  0
    0.0000   -1.6500    0.0000 C   0  0  0  0  0  0  0  0  0  0  0  0
    0.0000   -2.4750    0.0000 N   0  0  0  0  0  0  0  0  0  0  0  0
   -0.7145   -2.8875    0.0000 C   0  0  0  0  0  0  0  0  0  0  0  0
   -1.4289   -2.4750    0.0000 N   0  0  0  0  0  0  0  0  0  0  0  0
   -1.4289   -1.6500    0.0000 C   0  0  0  0  0  0  0  0  0  0  0  0
    0.7145   -1.2375    0.0000 N   0  0  0  0  0  0  0  0  0  0  0  0
    0.7145   -0.4125    0.0000 C   0  0  0  0  0  0  0  0  0  0  0  0
    1.4289    0.0000    0.0000 C   0  0  0  0  0  0  0  0  0  0  0  0
    2.1434   -0.4125    0.0000 C   0  0  0  0  0  0  0  0  0  0  0  0
    2.1434    0.4125    0.0000 O   0  0  0  0  0  0  0  0  0  0  0  0
    2.8579    0.0000    0.0000 C   0  0  0  0  0  0  0  0  0  0  0  0
    3.5724   -0.4125    0.0000 C   0  0  0  0  0  0  0  0  0  0  0  0
    3.5724   -1.2375    0.0000 C   0  0  0  0  0  0  0  0  0  0  0  0
    2.8579   -1.6500    0.0000 C   0  0  0  0  0  0  0  0  0  0  0  0
    2.1434   -1.2375    0.0000 C   0  0  0  0  0  0  0  0  0  0  0  0
    1.4289   -1.6500    0.0000 C   0  0  0  0  0  0  0  0  0  0  0  0
  1  2  1  0  0  0  0
  2  3  1  0  0  0  0
  3  4  1  0  0  0  0
  4  5  1  0  0  0  0
  3  6  1  0  0  0  0
  6  7  1  0  0  0  0
  7  8  1  0  0  0  0
  3  8  1  0  0  0  0
  7  9  1  0  0  0  0
  9 10  1  0  0  0  0
 10 11  2  0  0  0  0
 11 12  1  0  0  0  0
 12 13  1  0  0  0  0
 13 14  2  0  0  0  0
 14 15  1  0  0  0  0
 15 16  2  0  0  0  0
 16 17  1  0  0  0  0
 12 17  2  0  0  0  0
  9 17  1  0  0  0  0
 13 18  1  0  0  0  0
 18 19  1  0  0  0  0
 19 20  1  0  0  0  0
 20 21  1  0  0  0  0
 21 22  1  0  0  0  0
 21 23  1  0  0  0  0
 23 24  1  0  0  0  0
 24 25  1  0  0  0  0
 25 26  1  0  0  0  0
 26 27  1  0  0  0  0
 21 27  1  0  0  0  0
 27 28  1  0  0  0  0
 18 28  1  0  0  0  0
M  END
>  <Catalog ID>
Z2760953300

>  <Plate_ID>
2026983-X50-03

>  <Well>
B08

>  <V, µL>
50

>  <Conc, mM>
10

>  <Formula>
C20H29N5O3

>  <MW>
387.476

>  <Purity>
93.71

>  <PO>
5A-64168

>  <MW_salt>
0

>  <Stereochem.data>
Diastereomeric mixture

>  <Geometric.isomer>
Unknown

>  <Chemical name>
2-{9-[3,3-bis(hydroxymethyl)cyclobutyl]-9H-purin-6-yl}-decahydroisoquinolin-4a-ol

>  <ClogP>
-0,374

>  <logS>
-2,678

>  <HBD>
3

>  <HBA>
7

>  <TPSA>
107,53

>  <RotBonds>
4

$$$$

  Mrv1925 04172511352D          

 29 32  0  0  0  0            999 V2000
    1.8500    6.1875    0.0000 C   0  0  0  0  0  0  0  0  0  0  0  0
    2.5645    5.7750    0.0000 C   0  0  0  0  0  0  0  0  0  0  0  0
    3.2789    6.1875    0.0000 O   0  0  0  0  0  0  0  0  0  0  0  0
    2.5645    4.9500    0.0000 N   0  0  0  0  0  0  0  0  0  0  0  0
    3.2789    4.5375    0.0000 C   0  0  0  0  0  0  0  0  0  0  0  0
    3.9934    4.9500    0.0000 C   0  0  0  0  0  0  0  0  0  0  0  0
    3.2789    3.7125    0.0000 C   0  0  0  0  0  0  0  0  0  0  0  0
    3.9934    3.3000    0.0000 C   0  0  0  0  0  0  0  0  0  0  0  0
    3.9934    2.4750    0.0000 C   0  0  0  0  0  0  0  0  0  0  0  0
    3.2789    2.0625    0.0000 N   0  0  0  0  0  0  0  0  0  0  0  0
    2.5645    2.4750    0.0000 C   0  0  0  0  0  0  0  0  0  0  0  0
    2.5645    3.3000    0.0000 C   0  0  0  0  0  0  0  0  0  0  0  0
    3.2789    1.2375    0.0000 C   0  0  0  0  0  0  0  0  0  0  0  0
    3.9934    0.8250    0.0000 N   0  0  0  0  0  0  0  0  0  0  0  0
    3.9934    0.0000    0.0000 C   0  0  0  0  0  0  0  0  0  0  0  0
    3.2789   -0.4125    0.0000 N   0  0  0  0  0  0  0  0  0  0  0  0
    2.5645    0.0000    0.0000 C   0  0  0  0  0  0  0  0  0  0  0  0
    2.5645    0.8250    0.0000 C   0  0  0  0  0  0  0  0  0  0  0  0
    1.7798    1.0799    0.0000 N   0  0  0  0  0  0  0  0  0  0  0  0
    1.2949    0.4125    0.0000 C   0  0  0  0  0  0  0  0  0  0  0  0
    1.7798   -0.2549    0.0000 N   0  0  0  0  0  0  0  0  0  0  0  0
    1.5249   -1.0396    0.0000 C   0  0  0  0  0  0  0  0  0  0  0  0
    1.8994   -1.7746    0.0000 C   0  0  0  0  0  0  0  0  0  0  0  0
    1.1644   -2.1492    0.0000 C   0  0  0  0  0  0  0  0  0  0  0  0
    1.5389   -2.8843    0.0000 C   0  0  0  0  0  0  0  0  0  0  0  0
    2.3628   -2.9274    0.0000 O   0  0  0  0  0  0  0  0  0  0  0  0
    0.4293   -2.5237    0.0000 C   0  0  0  0  0  0  0  0  0  0  0  0
   -0.2626   -2.0744    0.0000 O   0  0  0  0  0  0  0  0  0  0  0  0
    0.7898   -1.4141    0.0000 C   0  0  0  0  0  0  0  0  0  0  0  0
  1  2  1  0  0  0  0
  2  3  2  0  0  0  0
  2  4  1  0  0  0  0
  4  5  1  0  0  0  0
  5  6  1  0  0  0  0
  5  7  1  0  0  0  0
  7  8  1  0  0  0  0
  8  9  1  0  0  0  0
  9 10  1  0  0  0  0
 10 11  1  0  0  0  0
 11 12  1  0  0  0  0
  7 12  1  0  0  0  0
 10 13  1  0  0  0  0
 13 14  1  0  0  0  0
 14 15  2  0  0  0  0
 15 16  1  0  0  0  0
 16 17  2  0  0  0  0
 17 18  1  0  0  0  0
 13 18  2  0  0  0  0
 18 19  1  0  0  0  0
 19 20  2  0  0  0  0
 20 21  1  0  0  0  0
 17 21  1  0  0  0  0
 21 22  1  0  0  0  0
 22 23  1  0  0  0  0
 23 24  1  0  0  0  0
 24 25  1  0  0  0  0
 25 26  1  0  0  0  0
 24 27  1  0  0  0  0
 27 28  1  0  0  0  0
 24 29  1  0  0  0  0
 22 29  1  0  0  0  0
M  END
>  <Catalog ID>
Z2760963880

>  <Plate_ID>
2026983-X50-03

>  <Well>
C08

>  <V, µL>
50

>  <Conc, mM>
10

>  <Formula>
C20H30N6O3

>  <MW>
402.4906

>  <Purity>
100

>  <PO>
5A-64168

>  <MW_salt>
0

>  <Stereochem.data>
Racemic or presumed racemic or meso

>  <Geometric.isomer>
None

>  <Chemical name>
N-[1-(1-{9-[3,3-bis(hydroxymethyl)cyclobutyl]-9H-purin-6-yl}piperidin-4-yl)ethyl]acetamide

>  <ClogP>
-1,684

>  <logS>
-2,02

>  <HBD>
3

>  <HBA>
7

>  <TPSA>
116,4

>  <RotBonds>
6

$$$$

  Mrv1925 04172511352D          

 28 32  0  0  0  0            999 V2000
    1.6553    1.4855    0.0000 O   0  0  0  0  0  0  0  0  0  0  0  0
    1.8269    2.2925    0.0000 C   0  0  0  0  0  0  0  0  0  0  0  0
    1.2138    2.8445    0.0000 N   0  0  0  0  0  0  0  0  0  0  0  0
    0.4292    2.5896    0.0000 C   0  0  0  0  0  0  0  0  0  0  0  0
   -0.1229    1.9765    0.0000 C   0  0  0  0  0  0  0  0  0  0  0  0
   -0.3778    2.7611    0.0000 C   0  0  0  0  0  0  0  0  0  0  0  0
    2.6115    2.5474    0.0000 C   0  0  0  0  0  0  0  0  0  0  0  0
    2.8664    3.3320    0.0000 C   0  0  0  0  0  0  0  0  0  0  0  0
    3.6914    3.3320    0.0000 C   0  0  0  0  0  0  0  0  0  0  0  0
    3.9464    2.5474    0.0000 C   0  0  0  0  0  0  0  0  0  0  0  0
    3.2789    2.0625    0.0000 N   0  0  0  0  0  0  0  0  0  0  0  0
    3.2789    1.2375    0.0000 C   0  0  0  0  0  0  0  0  0  0  0  0
    3.9934    0.8250    0.0000 N   0  0  0  0  0  0  0  0  0  0  0  0
    3.9934    0.0000    0.0000 C   0  0  0  0  0  0  0  0  0  0  0  0
    3.2789   -0.4125    0.0000 N   0  0  0  0  0  0  0  0  0  0  0  0
    2.5645    0.0000    0.0000 C   0  0  0  0  0  0  0  0  0  0  0  0
    2.5645    0.8250    0.0000 C   0  0  0  0  0  0  0  0  0  0  0  0
    1.7798    1.0799    0.0000 N   0  0  0  0  0  0  0  0  0  0  0  0
    1.2949    0.4125    0.0000 C   0  0  0  0  0  0  0  0  0  0  0  0
    1.7798   -0.2549    0.0000 N   0  0  0  0  0  0  0  0  0  0  0  0
    1.5249   -1.0396    0.0000 C   0  0  0  0  0  0  0  0  0  0  0  0
    1.8994   -1.7746    0.0000 C   0  0  0  0  0  0  0  0  0  0  0  0
    1.1644   -2.1492    0.0000 C   0  0  0  0  0  0  0  0  0  0  0  0
    1.5389   -2.8843    0.0000 C   0  0  0  0  0  0  0  0  0  0  0  0
    2.3628   -2.9274    0.0000 O   0  0  0  0  0  0  0  0  0  0  0  0
    0.4293   -2.5237    0.0000 C   0  0  0  0  0  0  0  0  0  0  0  0
   -0.2626   -2.0744    0.0000 O   0  0  0  0  0  0  0  0  0  0  0  0
    0.7898   -1.4141    0.0000 C   0  0  0  0  0  0  0  0  0  0  0  0
  1  2  2  0  0  0  0
  2  3  1  0  0  0  0
  3  4  1  0  0  0  0
  4  5  1  0  0  0  0
  5  6  1  0  0  0  0
  4  6  1  0  0  0  0
  2  7  1  0  0  0  0
  7  8  1  0  0  0  0
  8  9  1  0  0  0  0
  9 10  1  0  0  0  0
 10 11  1  0  0  0  0
  7 11  1  0  0  0  0
 11 12  1  0  0  0  0
 12 13  1  0  0  0  0
 13 14  2  0  0  0  0
 14 15  1  0  0  0  0
 15 16  2  0  0  0  0
 16 17  1  0  0  0  0
 12 17  2  0  0  0  0
 17 18  1  0  0  0  0
 18 19  2  0  0  0  0
 19 20  1  0  0  0  0
 16 20  1  0  0  0  0
 20 21  1  0  0  0  0
 21 22  1  0  0  0  0
 22 23  1  0  0  0  0
 23 24  1  0  0  0  0
 24 25  1  0  0  0  0
 23 26  1  0  0  0  0
 26 27  1  0  0  0  0
 23 28  1  0  0  0  0
 21 28  1  0  0  0  0
M  END
>  <Catalog ID>
Z2760938911

>  <Plate_ID>
2026983-X50-03

>  <Well>
D08

>  <V, µL>
50

>  <Conc, mM>
10

>  <Formula>
C19H26N6O3

>  <MW>
386.4481

>  <Purity>
90.67

>  <PO>
5A-64168

>  <MW_salt>
0

>  <Stereochem.data>
Racemic or presumed racemic or meso

>  <Geometric.isomer>
None

>  <Chemical name>
1-{9-[3,3-bis(hydroxymethyl)cyclobutyl]-9H-purin-6-yl}-N-cyclopropylpyrrolidine-2-carboxamide

>  <ClogP>
-1,195

>  <logS>
-1,997

>  <HBD>
3

>  <HBA>
7

>  <TPSA>
116,4

>  <RotBonds>
6

$$$$

  Mrv1925 04172511352D          

 29 32  0  0  0  0            999 V2000
    4.7079    4.5375    0.0000 C   0  0  0  0  0  0  0  0  0  0  0  0
    4.7079    3.7125    0.0000 C   0  0  0  0  0  0  0  0  0  0  0  0
    3.9934    3.3000    0.0000 C   0  0  0  0  0  0  0  0  0  0  0  0
    3.9934    2.4750    0.0000 C   0  0  0  0  0  0  0  0  0  0  0  0
    3.2789    2.0625    0.0000 N   0  0  0  0  0  0  0  0  0  0  0  0
    2.5645    2.4750    0.0000 C   0  0  0  0  0  0  0  0  0  0  0  0
    2.5645    3.3000    0.0000 C   0  0  0  0  0  0  0  0  0  0  0  0
    3.2789    3.7125    0.0000 N   0  0  0  0  0  0  0  0  0  0  0  0
    3.2789    4.5375    0.0000 C   0  0  0  0  0  0  0  0  0  0  0  0
    3.9934    4.9500    0.0000 C   0  0  0  0  0  0  0  0  0  0  0  0
    3.9934    5.7750    0.0000 O   0  0  0  0  0  0  0  0  0  0  0  0
    4.7079    6.1875    0.0000 C   0  0  0  0  0  0  0  0  0  0  0  0
    3.2789    1.2375    0.0000 C   0  0  0  0  0  0  0  0  0  0  0  0
    3.9934    0.8250    0.0000 N   0  0  0  0  0  0  0  0  0  0  0  0
    3.9934    0.0000    0.0000 C   0  0  0  0  0  0  0  0  0  0  0  0
    3.2789   -0.4125    0.0000 N   0  0  0  0  0  0  0  0  0  0  0  0
    2.5645    0.0000    0.0000 C   0  0  0  0  0  0  0  0  0  0  0  0
    2.5645    0.8250    0.0000 C   0  0  0  0  0  0  0  0  0  0  0  0
    1.7798    1.0799    0.0000 N   0  0  0  0  0  0  0  0  0  0  0  0
    1.2949    0.4125    0.0000 C   0  0  0  0  0  0  0  0  0  0  0  0
    1.7798   -0.2549    0.0000 N   0  0  0  0  0  0  0  0  0  0  0  0
    1.5249   -1.0396    0.0000 C   0  0  0  0  0  0  0  0  0  0  0  0
    2.0769   -1.6527    0.0000 C   0  0  0  0  0  0  0  0  0  0  0  0
    1.3773   -2.0898    0.0000 O   0  0  0  0  0  0  0  0  0  0  0  0
    2.5848   -1.0025    0.0000 C   0  0  0  0  0  0  0  0  0  0  0  0
    3.4018   -1.1174    0.0000 C   0  0  0  0  0  0  0  0  0  0  0  0
    3.7109   -1.8823    0.0000 O   0  0  0  0  0  0  0  0  0  0  0  0
    3.2030   -2.5324    0.0000 C   0  0  0  0  0  0  0  0  0  0  0  0
    2.3860   -2.4176    0.0000 C   0  0  0  0  0  0  0  0  0  0  0  0
  1  2  1  0  0  0  0
  2  3  1  0  0  0  0
  3  4  1  0  0  0  0
  4  5  1  0  0  0  0
  5  6  1  0  0  0  0
  6  7  1  0  0  0  0
  7  8  1  0  0  0  0
  3  8  1  0  0  0  0
  8  9  1  0  0  0  0
  9 10  1  0  0  0  0
 10 11  1  0  0  0  0
 11 12  1  0  0  0  0
  5 13  1  0  0  0  0
 13 14  1  0  0  0  0
 14 15  2  0  0  0  0
 15 16  1  0  0  0  0
 16 17  2  0  0  0  0
 17 18  1  0  0  0  0
 13 18  2  0  0  0  0
 18 19  1  0  0  0  0
 19 20  2  0  0  0  0
 20 21  1  0  0  0  0
 17 21  1  0  0  0  0
 21 22  1  0  0  0  0
 22 23  1  0  0  0  0
 23 24  1  0  0  0  0
 23 25  1  0  0  0  0
 25 26  1  0  0  0  0
 26 27  1  0  0  0  0
 27 28  1  0  0  0  0
 28 29  1  0  0  0  0
 23 29  1  0  0  0  0
M  END
>  <Catalog ID>
Z2760947086

>  <Plate_ID>
2026983-X50-03

>  <Well>
E08

>  <V, µL>
50

>  <Conc, mM>
10

>  <Formula>
C20H32N6O3

>  <MW>
404.5065

>  <Purity>
90.88

>  <PO>
5A-64168

>  <MW_salt>
0

>  <Stereochem.data>
Racemic or presumed racemic or meso

>  <Geometric.isomer>
None

>  <Chemical name>
4-({6-[3-ethyl-4-(2-methoxyethyl)piperazin-1-yl]-9H-purin-9-yl}methyl)oxan-4-ol

>  <ClogP>
0,277

>  <logS>
-2,597

>  <HBD>
1

>  <HBA>
8

>  <TPSA>
88,77

>  <RotBonds>
7

$$$$

  Mrv1925 04172511352D          

 24 26  0  0  0  0            999 V2000
    0.3020    9.3770    0.0000 C   0  0  0  0  0  0  0  0  0  0  0  0
    1.0164    8.9645    0.0000 C   0  0  0  0  0  0  0  0  0  0  0  0
    1.7309    9.3770    0.0000 C   0  0  0  0  0  0  0  0  0  0  0  0
    1.0164    8.1395    0.0000 C   0  0  0  0  0  0  0  0  0  0  0  0
    1.7309    7.7270    0.0000 C   0  0  0  0  0  0  0  0  0  0  0  0
    1.7309    6.9020    0.0000 C   0  0  0  0  0  0  0  0  0  0  0  0
    1.0164    6.4895    0.0000 N   0  0  0  0  0  0  0  0  0  0  0  0
    0.3020    6.9020    0.0000 C   0  0  0  0  0  0  0  0  0  0  0  0
    0.3020    7.7270    0.0000 C   0  0  0  0  0  0  0  0  0  0  0  0
    1.0164    5.6645    0.0000 C   0  0  0  0  0  0  0  0  0  0  0  0
    1.7309    5.2520    0.0000 O   0  0  0  0  0  0  0  0  0  0  0  0
    0.3020    5.2520    0.0000 N   0  0  0  0  0  0  0  0  0  0  0  0
    0.3020    4.4270    0.0000 C   0  0  0  0  0  0  0  0  0  0  0  0
   -0.4125    4.0145    0.0000 C   0  0  0  0  0  0  0  0  0  0  0  0
   -0.4125    3.1895    0.0000 C   0  0  0  0  0  0  0  0  0  0  0  0
   -1.1270    2.7770    0.0000 N   0  0  0  0  0  0  0  0  0  0  0  0
   -1.8414    3.1895    0.0000 C   0  0  0  0  0  0  0  0  0  0  0  0
   -2.5559    2.7770    0.0000 O   0  0  0  0  0  0  0  0  0  0  0  0
   -1.8414    4.0145    0.0000 N   0  0  0  0  0  0  0  0  0  0  0  0
   -1.1270    4.4270    0.0000 C   0  0  0  0  0  0  0  0  0  0  0  0
   -1.1270    5.2520    0.0000 O   0  0  0  0  0  0  0  0  0  0  0  0
   -1.1270    1.9520    0.0000 C   0  0  0  0  0  0  0  0  0  0  0  0
   -0.7145    1.2375    0.0000 C   0  0  0  0  0  0  0  0  0  0  0  0
   -1.5395    1.2375    0.0000 C   0  0  0  0  0  0  0  0  0  0  0  0
  1  2  1  0  0  0  0
  2  3  1  0  0  0  0
  2  4  1  0  0  0  0
  4  5  1  0  0  0  0
  5  6  1  0  0  0  0
  6  7  1  0  0  0  0
  7  8  1  0  0  0  0
  8  9  1  0  0  0  0
  4  9  1  0  0  0  0
  7 10  1  0  0  0  0
 10 11  2  0  0  0  0
 10 12  1  0  0  0  0
 12 13  1  0  0  0  0
 13 14  1  0  0  0  0
 14 15  2  0  0  0  0
 15 16  1  0  0  0  0
 16 17  1  0  0  0  0
 17 18  2  0  0  0  0
 17 19  1  0  0  0  0
 19 20  1  0  0  0  0
 14 20  1  0  0  0  0
 20 21  2  0  0  0  0
 16 22  1  0  0  0  0
 22 23  1  0  0  0  0
 23 24  1  0  0  0  0
 22 24  1  0  0  0  0
M  END
>  <Catalog ID>
Z2870725085

>  <Plate_ID>
2026983-X50-03

>  <Well>
F08

>  <V, µL>
50

>  <Conc, mM>
10

>  <Formula>
C17H26N4O3

>  <MW>
334.4133

>  <Purity>
100

>  <PO>
5A-64168

>  <MW_salt>
0

>  <Stereochem.data>
Achiral

>  <Geometric.isomer>
None

>  <Chemical name>
N-[(1-cyclopropyl-2,4-dioxo-1,2,3,4-tetrahydropyrimidin-5-yl)methyl]-4-(propan-2-yl)piperidine-1-carboxamide

>  <ClogP>
1,158

>  <logS>
-3,41

>  <HBD>
2

>  <HBA>
3

>  <TPSA>
81,75

>  <RotBonds>
4

$$$$

  Mrv1925 04172511352D          

 24 26  0  0  0  0            999 V2000
   -0.8250   -1.6500    0.0000 C   0  0  0  0  0  0  0  0  0  0  0  0
    0.0000   -1.6500    0.0000 C   0  0  0  0  0  0  0  0  0  0  0  0
    0.4125   -0.9355    0.0000 N   0  0  0  0  0  0  0  0  0  0  0  0
    1.2375   -0.9355    0.0000 C   0  0  0  0  0  0  0  0  0  0  0  0
    1.6500   -0.2211    0.0000 O   0  0  0  0  0  0  0  0  0  0  0  0
    1.6500   -1.6500    0.0000 N   0  0  0  0  0  0  0  0  0  0  0  0
    2.4750   -1.6500    0.0000 C   0  0  0  0  0  0  0  0  0  0  0  0
    2.8875   -2.3645    0.0000 C   0  0  0  0  0  0  0  0  0  0  0  0
    3.7125   -2.3645    0.0000 C   0  0  0  0  0  0  0  0  0  0  0  0
    4.1250   -3.0789    0.0000 N   0  0  0  0  0  0  0  0  0  0  0  0
    3.7125   -3.7934    0.0000 C   0  0  0  0  0  0  0  0  0  0  0  0
    4.1250   -4.5079    0.0000 O   0  0  0  0  0  0  0  0  0  0  0  0
    2.8875   -3.7934    0.0000 N   0  0  0  0  0  0  0  0  0  0  0  0
    2.4750   -3.0789    0.0000 C   0  0  0  0  0  0  0  0  0  0  0  0
    1.6500   -3.0789    0.0000 O   0  0  0  0  0  0  0  0  0  0  0  0
    4.9500   -3.0789    0.0000 C   0  0  0  0  0  0  0  0  0  0  0  0
    5.6645   -2.6664    0.0000 C   0  0  0  0  0  0  0  0  0  0  0  0
    5.6645   -3.4914    0.0000 C   0  0  0  0  0  0  0  0  0  0  0  0
    0.0000   -0.2211    0.0000 C   0  0  0  0  0  0  0  0  0  0  0  0
   -0.8250   -0.2211    0.0000 C   0  0  0  0  0  0  0  0  0  0  0  0
   -1.2375    0.4934    0.0000 C   0  0  0  0  0  0  0  0  0  0  0  0
   -0.8250    1.2079    0.0000 C   0  0  0  0  0  0  0  0  0  0  0  0
    0.0000    1.2079    0.0000 C   0  0  0  0  0  0  0  0  0  0  0  0
    0.4125    0.4934    0.0000 C   0  0  0  0  0  0  0  0  0  0  0  0
  1  2  1  0  0  0  0
  2  3  1  0  0  0  0
  3  4  1  0  0  0  0
  4  5  2  0  0  0  0
  4  6  1  0  0  0  0
  6  7  1  0  0  0  0
  7  8  1  0  0  0  0
  8  9  2  0  0  0  0
  9 10  1  0  0  0  0
 10 11  1  0  0  0  0
 11 12  2  0  0  0  0
 11 13  1  0  0  0  0
 13 14  1  0  0  0  0
  8 14  1  0  0  0  0
 14 15  2  0  0  0  0
 10 16  1  0  0  0  0
 16 17  1  0  0  0  0
 17 18  1  0  0  0  0
 16 18  1  0  0  0  0
  3 19  1  0  0  0  0
 19 20  1  0  0  0  0
 20 21  1  0  0  0  0
 21 22  1  0  0  0  0
 22 23  1  0  0  0  0
 23 24  1  0  0  0  0
 19 24  1  0  0  0  0
M  END
>  <Catalog ID>
Z2870726182

>  <Plate_ID>
2026983-X50-03

>  <Well>
G08

>  <V, µL>
50

>  <Conc, mM>
10

>  <Formula>
C17H26N4O3

>  <MW>
334.4133

>  <Purity>
100

>  <PO>
5A-64168

>  <MW_salt>
0

>  <Stereochem.data>
Achiral

>  <Geometric.isomer>
None

>  <Chemical name>
1-cyclohexyl-3-[(1-cyclopropyl-2,4-dioxo-1,2,3,4-tetrahydropyrimidin-5-yl)methyl]-1-ethylurea

>  <ClogP>
0,838

>  <logS>
-3,105

>  <HBD>
2

>  <HBA>
3

>  <TPSA>
81,75

>  <RotBonds>
5

$$$$

  Mrv1925 04172511352D          

 24 26  0  0  0  0            999 V2000
    1.8414    8.9645    0.0000 C   0  0  0  0  0  0  0  0  0  0  0  0
    1.8414    8.1395    0.0000 C   0  0  0  0  0  0  0  0  0  0  0  0
    2.5559    7.7270    0.0000 C   0  0  0  0  0  0  0  0  0  0  0  0
    1.1270    7.7270    0.0000 N   0  0  0  0  0  0  0  0  0  0  0  0
    1.1270    6.9020    0.0000 C   0  0  0  0  0  0  0  0  0  0  0  0
    0.4125    6.4895    0.0000 C   0  0  0  0  0  0  0  0  0  0  0  0
    0.4125    5.6645    0.0000 C   0  0  0  0  0  0  0  0  0  0  0  0
    1.1270    5.2520    0.0000 N   0  0  0  0  0  0  0  0  0  0  0  0
    1.1270    4.4270    0.0000 C   0  0  0  0  0  0  0  0  0  0  0  0
    0.4125    4.0145    0.0000 O   0  0  0  0  0  0  0  0  0  0  0  0
    1.8414    4.0145    0.0000 N   0  0  0  0  0  0  0  0  0  0  0  0
    2.5559    4.4270    0.0000 C   0  0  0  0  0  0  0  0  0  0  0  0
    3.2704    4.0145    0.0000 C   0  0  0  0  0  0  0  0  0  0  0  0
    3.2704    3.1895    0.0000 C   0  0  0  0  0  0  0  0  0  0  0  0
    2.5559    2.7770    0.0000 C   0  0  0  0  0  0  0  0  0  0  0  0
    1.8414    3.1895    0.0000 C   0  0  0  0  0  0  0  0  0  0  0  0
    2.5559    1.9520    0.0000 C   0  0  0  0  0  0  0  0  0  0  0  0
    2.9684    1.2375    0.0000 C   0  0  0  0  0  0  0  0  0  0  0  0
    2.1434    1.2375    0.0000 C   0  0  0  0  0  0  0  0  0  0  0  0
   -0.3020    6.9020    0.0000 C   0  0  0  0  0  0  0  0  0  0  0  0
   -1.0164    6.4895    0.0000 O   0  0  0  0  0  0  0  0  0  0  0  0
   -0.3020    7.7270    0.0000 N   0  0  0  0  0  0  0  0  0  0  0  0
    0.4125    8.1395    0.0000 C   0  0  0  0  0  0  0  0  0  0  0  0
    0.4125    8.9645    0.0000 O   0  0  0  0  0  0  0  0  0  0  0  0
  1  2  1  0  0  0  0
  2  3  1  0  0  0  0
  2  4  1  0  0  0  0
  4  5  1  0  0  0  0
  5  6  2  0  0  0  0
  6  7  1  0  0  0  0
  7  8  1  0  0  0  0
  8  9  1  0  0  0  0
  9 10  2  0  0  0  0
  9 11  1  0  0  0  0
 11 12  1  0  0  0  0
 12 13  1  0  0  0  0
 13 14  1  0  0  0  0
 14 15  1  0  0  0  0
 15 16  1  0  0  0  0
 11 16  1  0  0  0  0
 15 17  1  0  0  0  0
 17 18  1  0  0  0  0
 18 19  1  0  0  0  0
 17 19  1  0  0  0  0
  6 20  1  0  0  0  0
 20 21  2  0  0  0  0
 20 22  1  0  0  0  0
 22 23  1  0  0  0  0
  4 23  1  0  0  0  0
 23 24  2  0  0  0  0
M  END
>  <Catalog ID>
Z3141239617

>  <Plate_ID>
2026983-X50-03

>  <Well>
H08

>  <V, µL>
50

>  <Conc, mM>
10

>  <Formula>
C17H26N4O3

>  <MW>
334.4133

>  <Purity>
100

>  <PO>
5A-64168

>  <MW_salt>
0

>  <Stereochem.data>
Racemic or presumed racemic or meso

>  <Geometric.isomer>
None

>  <Chemical name>
3-cyclopropyl-N-{[2,4-dioxo-1-(propan-2-yl)-1,2,3,4-tetrahydropyrimidin-5-yl]methyl}piperidine-1-carboxamide

>  <ClogP>
0,838

>  <logS>
-3,177

>  <HBD>
2

>  <HBA>
3

>  <TPSA>
81,75

>  <RotBonds>
4

$$$$

  Mrv1925 04172511352D          

 25 28  0  0  0  0            999 V2000
    1.2138    2.8445    0.0000 C   0  0  0  0  0  0  0  0  0  0  0  0
    1.8269    2.2925    0.0000 C   0  0  0  0  0  0  0  0  0  0  0  0
    2.6115    2.5474    0.0000 C   0  0  0  0  0  0  0  0  0  0  0  0
    2.8664    3.3320    0.0000 C   0  0  0  0  0  0  0  0  0  0  0  0
    3.6914    3.3320    0.0000 C   0  0  0  0  0  0  0  0  0  0  0  0
    3.9464    2.5474    0.0000 C   0  0  0  0  0  0  0  0  0  0  0  0
    4.7310    2.2925    0.0000 C   0  0  0  0  0  0  0  0  0  0  0  0
    3.2789    2.0625    0.0000 N   0  0  0  0  0  0  0  0  0  0  0  0
    3.2789    1.2375    0.0000 C   0  0  0  0  0  0  0  0  0  0  0  0
    3.9934    0.8250    0.0000 N   0  0  0  0  0  0  0  0  0  0  0  0
    3.9934    0.0000    0.0000 C   0  0  0  0  0  0  0  0  0  0  0  0
    3.2789   -0.4125    0.0000 N   0  0  0  0  0  0  0  0  0  0  0  0
    2.5645    0.0000    0.0000 C   0  0  0  0  0  0  0  0  0  0  0  0
    2.5645    0.8250    0.0000 C   0  0  0  0  0  0  0  0  0  0  0  0
    1.7798    1.0799    0.0000 N   0  0  0  0  0  0  0  0  0  0  0  0
    1.2949    0.4125    0.0000 C   0  0  0  0  0  0  0  0  0  0  0  0
    1.7798   -0.2549    0.0000 N   0  0  0  0  0  0  0  0  0  0  0  0
    1.5249   -1.0396    0.0000 C   0  0  0  0  0  0  0  0  0  0  0  0
    2.0769   -1.6527    0.0000 C   0  0  0  0  0  0  0  0  0  0  0  0
    2.8839   -1.4811    0.0000 O   0  0  0  0  0  0  0  0  0  0  0  0
    1.8220   -2.4373    0.0000 C   0  0  0  0  0  0  0  0  0  0  0  0
    2.3069   -3.1047    0.0000 C   0  0  0  0  0  0  0  0  0  0  0  0
    1.8220   -3.7722    0.0000 C   0  0  0  0  0  0  0  0  0  0  0  0
    1.0374   -3.5172    0.0000 C   0  0  0  0  0  0  0  0  0  0  0  0
    1.0374   -2.6922    0.0000 O   0  0  0  0  0  0  0  0  0  0  0  0
  1  2  1  0  0  0  0
  2  3  1  0  0  0  0
  3  4  1  0  0  0  0
  4  5  1  0  0  0  0
  5  6  1  0  0  0  0
  6  7  1  0  0  0  0
  6  8  1  0  0  0  0
  3  8  1  0  0  0  0
  8  9  1  0  0  0  0
  9 10  1  0  0  0  0
 10 11  2  0  0  0  0
 11 12  1  0  0  0  0
 12 13  2  0  0  0  0
 13 14  1  0  0  0  0
  9 14  2  0  0  0  0
 14 15  1  0  0  0  0
 15 16  2  0  0  0  0
 16 17  1  0  0  0  0
 13 17  1  0  0  0  0
 17 18  1  0  0  0  0
 18 19  1  0  0  0  0
 19 20  1  0  0  0  0
 19 21  1  0  0  0  0
 21 22  1  0  0  0  0
 22 23  1  0  0  0  0
 23 24  1  0  0  0  0
 24 25  1  0  0  0  0
 21 25  1  0  0  0  0
M  END
>  <Catalog ID>
Z2760959029

>  <Plate_ID>
2026983-X50-03

>  <Well>
A09

>  <V, µL>
50

>  <Conc, mM>
10

>  <Formula>
C18H27N5O2

>  <MW>
345.4393

>  <Purity>
93

>  <PO>
5A-64168

>  <MW_salt>
0

>  <Stereochem.data>
Diastereomeric mixture

>  <Geometric.isomer>
None

>  <Chemical name>
2-[6-(2-ethyl-5-methylpyrrolidin-1-yl)-9H-purin-9-yl]-1-(oxolan-2-yl)ethan-1-ol

>  <ClogP>
1,715

>  <logS>
-3,449

>  <HBD>
1

>  <HBA>
6

>  <TPSA>
76,3

>  <RotBonds>
5

$$$$

  Mrv1925 04172511352D          

 17 18  0  0  0  0            999 V2000
    0.0000   -1.6500    0.0000 O   0  0  0  0  0  0  0  0  0  0  0  0
    0.7145   -1.2375    0.0000 C   0  0  0  0  0  0  0  0  0  0  0  0
    1.4289   -1.6500    0.0000 C   0  0  0  0  0  0  0  0  0  0  0  0
    1.4289   -2.4750    0.0000 N   0  0  0  0  0  0  0  0  0  0  0  0
    2.1434   -2.8875    0.0000 C   0  0  0  0  0  0  0  0  0  0  0  0
    2.1434   -3.7125    0.0000 C   0  0  0  0  0  0  0  0  0  0  0  0
    1.4289   -4.1250    0.0000 C   0  0  0  0  0  0  0  0  0  0  0  0
    1.4289   -4.9500    0.0000 O   0  0  0  0  0  0  0  0  0  0  0  0
    0.7145   -3.7125    0.0000 N   0  0  0  0  0  0  0  0  0  0  0  0
    0.7145   -2.8875    0.0000 C   0  0  0  0  0  0  0  0  0  0  0  0
    0.0000   -2.4750    0.0000 O   0  0  0  0  0  0  0  0  0  0  0  0
    0.7145   -0.4125    0.0000 N   0  0  0  0  0  0  0  0  0  0  0  0
    0.0000    0.0000    0.0000 C   0  0  0  0  0  0  0  0  0  0  0  0
    0.0000    0.8250    0.0000 C   0  0  0  0  0  0  0  0  0  0  0  0
    0.7145    1.2375    0.0000 C   0  0  0  0  0  0  0  0  0  0  0  0
    1.4289    0.8250    0.0000 C   0  0  0  0  0  0  0  0  0  0  0  0
    1.4289    0.0000    0.0000 C   0  0  0  0  0  0  0  0  0  0  0  0
  1  2  2  0  0  0  0
  2  3  1  0  0  0  0
  3  4  1  0  0  0  0
  4  5  1  0  0  0  0
  5  6  2  0  0  0  0
  6  7  1  0  0  0  0
  7  8  2  0  0  0  0
  7  9  1  0  0  0  0
  9 10  1  0  0  0  0
  4 10  1  0  0  0  0
 10 11  2  0  0  0  0
  2 12  1  0  0  0  0
 12 13  1  0  0  0  0
 13 14  1  0  0  0  0
 14 15  1  0  0  0  0
 15 16  1  0  0  0  0
 16 17  1  0  0  0  0
 12 17  1  0  0  0  0
M  END
>  <Catalog ID>
Z144329240

>  <Plate_ID>
2026983-X50-03

>  <Well>
B09

>  <V, µL>
50

>  <Conc, mM>
10

>  <Formula>
C11H15N3O3

>  <MW>
237.2551

>  <Purity>
100

>  <PO>
5A-64168

>  <MW_salt>
0

>  <Stereochem.data>
Achiral

>  <Geometric.isomer>
None

>  <Chemical name>
1-[2-oxo-2-(piperidin-1-yl)ethyl]-1,2,3,4-tetrahydropyrimidine-2,4-dione

>  <ClogP>
-0,397

>  <logS>
-1,729

>  <HBD>
1

>  <HBA>
3

>  <TPSA>
69,72

>  <RotBonds>
2

$$$$

  Mrv1925 04172511352D          

 30 33  0  0  0  0            999 V2000
    1.8500    2.0625    0.0000 C   0  0  0  0  0  0  0  0  0  0  0  0
    2.5645    2.4750    0.0000 C   0  0  0  0  0  0  0  0  0  0  0  0
    2.5645    3.3000    0.0000 C   0  0  0  0  0  0  0  0  0  0  0  0
    3.2789    3.7125    0.0000 N   0  0  0  0  0  0  0  0  0  0  0  0
    3.2789    4.5375    0.0000 C   0  0  0  0  0  0  0  0  0  0  0  0
    3.9934    4.9500    0.0000 C   0  0  0  0  0  0  0  0  0  0  0  0
    4.7079    5.3625    0.0000 C   0  0  0  0  0  0  0  0  0  0  0  0
    3.5809    5.6645    0.0000 C   0  0  0  0  0  0  0  0  0  0  0  0
    4.4059    4.2355    0.0000 O   0  0  0  0  0  0  0  0  0  0  0  0
    3.9934    3.3000    0.0000 C   0  0  0  0  0  0  0  0  0  0  0  0
    3.9934    2.4750    0.0000 C   0  0  0  0  0  0  0  0  0  0  0  0
    3.2789    2.0625    0.0000 N   0  0  0  0  0  0  0  0  0  0  0  0
    3.2789    1.2375    0.0000 C   0  0  0  0  0  0  0  0  0  0  0  0
    3.9934    0.8250    0.0000 N   0  0  0  0  0  0  0  0  0  0  0  0
    3.9934    0.0000    0.0000 C   0  0  0  0  0  0  0  0  0  0  0  0
    3.2789   -0.4125    0.0000 N   0  0  0  0  0  0  0  0  0  0  0  0
    2.5645    0.0000    0.0000 C   0  0  0  0  0  0  0  0  0  0  0  0
    2.5645    0.8250    0.0000 C   0  0  0  0  0  0  0  0  0  0  0  0
    1.7798    1.0799    0.0000 N   0  0  0  0  0  0  0  0  0  0  0  0
    1.2949    0.4125    0.0000 C   0  0  0  0  0  0  0  0  0  0  0  0
    1.7798   -0.2549    0.0000 N   0  0  0  0  0  0  0  0  0  0  0  0
    1.5249   -1.0396    0.0000 C   0  0  0  0  0  0  0  0  0  0  0  0
    2.0769   -1.6527    0.0000 C   0  0  0  0  0  0  0  0  0  0  0  0
    2.8839   -1.4811    0.0000 C   0  0  0  0  0  0  0  0  0  0  0  0
    3.4359   -2.0942    0.0000 O   0  0  0  0  0  0  0  0  0  0  0  0
    1.8220   -2.4373    0.0000 C   0  0  0  0  0  0  0  0  0  0  0  0
    2.3069   -3.1047    0.0000 C   0  0  0  0  0  0  0  0  0  0  0  0
    1.8220   -3.7722    0.0000 C   0  0  0  0  0  0  0  0  0  0  0  0
    1.0374   -3.5172    0.0000 O   0  0  0  0  0  0  0  0  0  0  0  0
    1.0374   -2.6922    0.0000 C   0  0  0  0  0  0  0  0  0  0  0  0
  1  2  1  0  0  0  0
  2  3  1  0  0  0  0
  3  4  1  0  0  0  0
  4  5  1  0  0  0  0
  5  6  1  0  0  0  0
  6  7  1  0  0  0  0
  6  8  1  0  0  0  0
  6  9  1  0  0  0  0
  4 10  1  0  0  0  0
 10 11  1  0  0  0  0
 11 12  1  0  0  0  0
  2 12  1  0  0  0  0
 12 13  1  0  0  0  0
 13 14  1  0  0  0  0
 14 15  2  0  0  0  0
 15 16  1  0  0  0  0
 16 17  2  0  0  0  0
 17 18  1  0  0  0  0
 13 18  2  0  0  0  0
 18 19  1  0  0  0  0
 19 20  2  0  0  0  0
 20 21  1  0  0  0  0
 17 21  1  0  0  0  0
 21 22  1  0  0  0  0
 22 23  1  0  0  0  0
 23 24  1  0  0  0  0
 24 25  1  0  0  0  0
 23 26  1  0  0  0  0
 26 27  1  0  0  0  0
 27 28  1  0  0  0  0
 28 29  1  0  0  0  0
 29 30  1  0  0  0  0
 26 30  1  0  0  0  0
M  END
>  <Catalog ID>
Z2760962899

>  <Plate_ID>
2026983-X50-03

>  <Well>
C09

>  <V, µL>
50

>  <Conc, mM>
10

>  <Formula>
C21H34N6O3

>  <MW>
418.5331

>  <Purity>
100

>  <PO>
5A-64168

>  <MW_salt>
0

>  <Stereochem.data>
Diastereomeric mixture

>  <Geometric.isomer>
None

>  <Chemical name>
1-(4-{9-[3-hydroxy-2-(oxolan-3-yl)propyl]-9H-purin-6-yl}-3-methylpiperazin-1-yl)-2-methylpropan-2-ol

>  <ClogP>
0,079

>  <logS>
-2,303

>  <HBD>
2

>  <HBA>
8

>  <TPSA>
99,77

>  <RotBonds>
7

$$$$

  Mrv1925 04172511352D          

 26 28  0  0  0  0            999 V2000
   -1.4289   -2.4750    0.0000 C   0  0  0  0  0  0  0  0  0  0  0  0
   -0.7145   -2.0625    0.0000 C   0  0  0  0  0  0  0  0  0  0  0  0
   -0.7145   -1.2375    0.0000 C   0  0  0  0  0  0  0  0  0  0  0  0
    0.0000   -2.4750    0.0000 C   0  0  0  0  0  0  0  0  0  0  0  0
    0.7145   -2.0625    0.0000 C   0  0  0  0  0  0  0  0  0  0  0  0
    0.7145   -1.2375    0.0000 C   0  0  0  0  0  0  0  0  0  0  0  0
    1.4289   -0.8250    0.0000 O   0  0  0  0  0  0  0  0  0  0  0  0
    1.4289   -2.4750    0.0000 N   0  0  0  0  0  0  0  0  0  0  0  0
    1.4289   -3.3000    0.0000 C   0  0  0  0  0  0  0  0  0  0  0  0
    2.1434   -2.0625    0.0000 C   0  0  0  0  0  0  0  0  0  0  0  0
    2.1434   -1.2375    0.0000 N   0  0  0  0  0  0  0  0  0  0  0  0
    2.8579   -0.8250    0.0000 C   0  0  0  0  0  0  0  0  0  0  0  0
    3.5724   -1.2375    0.0000 N   0  0  0  0  0  0  0  0  0  0  0  0
    3.5724   -2.0625    0.0000 C   0  0  0  0  0  0  0  0  0  0  0  0
    2.8579   -2.4750    0.0000 C   0  0  0  0  0  0  0  0  0  0  0  0
    3.0294   -3.2820    0.0000 N   0  0  0  0  0  0  0  0  0  0  0  0
    3.8499   -3.3682    0.0000 C   0  0  0  0  0  0  0  0  0  0  0  0
    4.1854   -2.6145    0.0000 N   0  0  0  0  0  0  0  0  0  0  0  0
    4.9924   -2.4430    0.0000 C   0  0  0  0  0  0  0  0  0  0  0  0
    5.5445   -3.0561    0.0000 C   0  0  0  0  0  0  0  0  0  0  0  0
    4.8448   -3.4933    0.0000 O   0  0  0  0  0  0  0  0  0  0  0  0
    6.0524   -2.4060    0.0000 C   0  0  0  0  0  0  0  0  0  0  0  0
    6.8693   -2.5208    0.0000 C   0  0  0  0  0  0  0  0  0  0  0  0
    7.1784   -3.2857    0.0000 O   0  0  0  0  0  0  0  0  0  0  0  0
    6.6705   -3.9358    0.0000 C   0  0  0  0  0  0  0  0  0  0  0  0
    5.8535   -3.8210    0.0000 C   0  0  0  0  0  0  0  0  0  0  0  0
  1  2  1  0  0  0  0
  2  3  1  0  0  0  0
  2  4  1  0  0  0  0
  4  5  1  0  0  0  0
  5  6  1  0  0  0  0
  6  7  1  0  0  0  0
  5  8  1  0  0  0  0
  8  9  1  0  0  0  0
  8 10  1  0  0  0  0
 10 11  1  0  0  0  0
 11 12  2  0  0  0  0
 12 13  1  0  0  0  0
 13 14  2  0  0  0  0
 14 15  1  0  0  0  0
 10 15  2  0  0  0  0
 15 16  1  0  0  0  0
 16 17  2  0  0  0  0
 17 18  1  0  0  0  0
 14 18  1  0  0  0  0
 18 19  1  0  0  0  0
 19 20  1  0  0  0  0
 20 21  1  0  0  0  0
 20 22  1  0  0  0  0
 22 23  1  0  0  0  0
 23 24  1  0  0  0  0
 24 25  1  0  0  0  0
 25 26  1  0  0  0  0
 20 26  1  0  0  0  0
M  END
>  <Catalog ID>
Z2760963831

>  <Plate_ID>
2026983-X50-03

>  <Well>
D09

>  <V, µL>
50

>  <Conc, mM>
10

>  <Formula>
C18H29N5O3

>  <MW>
363.4546

>  <Purity>
100

>  <PO>
5A-64168

>  <MW_salt>
0

>  <Stereochem.data>
Racemic or presumed racemic or meso

>  <Geometric.isomer>
None

>  <Chemical name>
4-({6-[(1-hydroxy-4-methylpentan-2-yl)(methyl)amino]-9H-purin-9-yl}methyl)oxan-4-ol

>  <ClogP>
0,3

>  <logS>
-3,493

>  <HBD>
2

>  <HBA>
7

>  <TPSA>
96,53

>  <RotBonds>
7

$$$$

  Mrv1925 04172511352D          

 29 32  0  0  0  0            999 V2000
    1.8500    2.0625    0.0000 C   0  0  0  0  0  0  0  0  0  0  0  0
    2.5645    2.4750    0.0000 C   0  0  0  0  0  0  0  0  0  0  0  0
    2.5645    3.3000    0.0000 C   0  0  0  0  0  0  0  0  0  0  0  0
    3.2789    3.7125    0.0000 C   0  0  0  0  0  0  0  0  0  0  0  0
    3.9934    3.3000    0.0000 C   0  0  0  0  0  0  0  0  0  0  0  0
    3.9934    2.4750    0.0000 C   0  0  0  0  0  0  0  0  0  0  0  0
    3.2789    2.0625    0.0000 N   0  0  0  0  0  0  0  0  0  0  0  0
    3.2789    1.2375    0.0000 C   0  0  0  0  0  0  0  0  0  0  0  0
    3.9934    0.8250    0.0000 N   0  0  0  0  0  0  0  0  0  0  0  0
    3.9934    0.0000    0.0000 C   0  0  0  0  0  0  0  0  0  0  0  0
    3.2789   -0.4125    0.0000 N   0  0  0  0  0  0  0  0  0  0  0  0
    2.5645    0.0000    0.0000 C   0  0  0  0  0  0  0  0  0  0  0  0
    2.5645    0.8250    0.0000 C   0  0  0  0  0  0  0  0  0  0  0  0
    1.7798    1.0799    0.0000 N   0  0  0  0  0  0  0  0  0  0  0  0
    1.2949    0.4125    0.0000 C   0  0  0  0  0  0  0  0  0  0  0  0
    1.7798   -0.2549    0.0000 N   0  0  0  0  0  0  0  0  0  0  0  0
    1.5249   -1.0396    0.0000 C   0  0  0  0  0  0  0  0  0  0  0  0
    0.7179   -1.2111    0.0000 C   0  0  0  0  0  0  0  0  0  0  0  0
    0.6891   -0.3866    0.0000 C   0  0  0  0  0  0  0  0  0  0  0  0
   -0.0393    0.0007    0.0000 O   0  0  0  0  0  0  0  0  0  0  0  0
    1.0270   -1.9760    0.0000 C   0  0  0  0  0  0  0  0  0  0  0  0
    0.5191   -2.6261    0.0000 C   0  0  0  0  0  0  0  0  0  0  0  0
   -0.2979   -2.5113    0.0000 O   0  0  0  0  0  0  0  0  0  0  0  0
   -0.6070   -1.7464    0.0000 C   0  0  0  0  0  0  0  0  0  0  0  0
   -0.0990   -1.0963    0.0000 C   0  0  0  0  0  0  0  0  0  0  0  0
    3.2789    4.5375    0.0000 C   0  0  0  0  0  0  0  0  0  0  0  0
    3.2789    5.3625    0.0000 F   0  0  0  0  0  0  0  0  0  0  0  0
    4.1039    4.5375    0.0000 F   0  0  0  0  0  0  0  0  0  0  0  0
    2.4539    4.5375    0.0000 F   0  0  0  0  0  0  0  0  0  0  0  0
  1  2  1  0  0  0  0
  2  3  1  0  0  0  0
  3  4  1  0  0  0  0
  4  5  1  0  0  0  0
  5  6  1  0  0  0  0
  6  7  1  0  0  0  0
  2  7  1  0  0  0  0
  7  8  1  0  0  0  0
  8  9  1  0  0  0  0
  9 10  2  0  0  0  0
 10 11  1  0  0  0  0
 11 12  2  0  0  0  0
 12 13  1  0  0  0  0
  8 13  2  0  0  0  0
 13 14  1  0  0  0  0
 14 15  2  0  0  0  0
 15 16  1  0  0  0  0
 12 16  1  0  0  0  0
 16 17  1  0  0  0  0
 17 18  1  0  0  0  0
 18 19  1  0  0  0  0
 19 20  1  0  0  0  0
 18 21  1  0  0  0  0
 21 22  1  0  0  0  0
 22 23  1  0  0  0  0
 23 24  1  0  0  0  0
 24 25  1  0  0  0  0
 18 25  1  0  0  0  0
  4 26  1  0  0  0  0
 26 27  1  0  0  0  0
 26 28  1  0  0  0  0
 26 29  1  0  0  0  0
M  END
>  <Catalog ID>
Z2760971405

>  <Plate_ID>
2026983-X50-03

>  <Well>
E09

>  <V, µL>
50

>  <Conc, mM>
10

>  <Formula>
C19H26F3N5O2

>  <MW>
413.4372

>  <Purity>
100

>  <PO>
5A-64168

>  <MW_salt>
0

>  <Stereochem.data>
Diastereomeric mixture

>  <Geometric.isomer>
Unequal mixture of geometric isomers

>  <Chemical name>
[4-({6-[2-methyl-4-(trifluoromethyl)piperidin-1-yl]-9H-purin-9-yl}methyl)oxan-4-yl]methanol

>  <ClogP>
0,96

>  <logS>
-3,275

>  <HBD>
1

>  <HBA>
6

>  <TPSA>
76,3

>  <RotBonds>
5

$$$$

  Mrv1925 04172511352D          

 29 32  0  0  0  0            999 V2000
    1.8500    3.7125    0.0000 C   0  0  0  0  0  0  0  0  0  0  0  0
    2.5645    3.3000    0.0000 C   0  0  0  0  0  0  0  0  0  0  0  0
    3.2789    3.7125    0.0000 C   0  0  0  0  0  0  0  0  0  0  0  0
    2.5645    2.4750    0.0000 C   0  0  0  0  0  0  0  0  0  0  0  0
    3.2789    2.0625    0.0000 N   0  0  0  0  0  0  0  0  0  0  0  0
    3.2789    1.2375    0.0000 C   0  0  0  0  0  0  0  0  0  0  0  0
    3.9934    0.8250    0.0000 N   0  0  0  0  0  0  0  0  0  0  0  0
    3.9934    0.0000    0.0000 C   0  0  0  0  0  0  0  0  0  0  0  0
    3.2789   -0.4125    0.0000 N   0  0  0  0  0  0  0  0  0  0  0  0
    2.5645    0.0000    0.0000 C   0  0  0  0  0  0  0  0  0  0  0  0
    2.5645    0.8250    0.0000 C   0  0  0  0  0  0  0  0  0  0  0  0
    1.7798    1.0799    0.0000 N   0  0  0  0  0  0  0  0  0  0  0  0
    1.2949    0.4125    0.0000 C   0  0  0  0  0  0  0  0  0  0  0  0
    1.7798   -0.2549    0.0000 N   0  0  0  0  0  0  0  0  0  0  0  0
    1.5249   -1.0396    0.0000 C   0  0  0  0  0  0  0  0  0  0  0  0
    0.7179   -1.2111    0.0000 C   0  0  0  0  0  0  0  0  0  0  0  0
    0.6317   -0.3906    0.0000 O   0  0  0  0  0  0  0  0  0  0  0  0
    0.9729   -1.9957    0.0000 C   0  0  0  0  0  0  0  0  0  0  0  0
    0.3054   -2.4806    0.0000 C   0  0  0  0  0  0  0  0  0  0  0  0
   -0.3620   -1.9957    0.0000 O   0  0  0  0  0  0  0  0  0  0  0  0
   -0.1071   -1.2111    0.0000 C   0  0  0  0  0  0  0  0  0  0  0  0
   -0.5920   -0.5436    0.0000 C   0  0  0  0  0  0  0  0  0  0  0  0
    3.9934    2.4750    0.0000 C   0  0  0  0  0  0  0  0  0  0  0  0
    3.9934    3.3000    0.0000 C   0  0  0  0  0  0  0  0  0  0  0  0
    4.7079    3.7125    0.0000 C   0  0  0  0  0  0  0  0  0  0  0  0
    5.4223    3.3000    0.0000 N   0  0  0  0  0  0  0  0  0  0  0  0
    6.1368    3.7125    0.0000 C   0  0  0  0  0  0  0  0  0  0  0  0
    5.4223    2.4750    0.0000 C   0  0  0  0  0  0  0  0  0  0  0  0
    4.7079    2.0625    0.0000 C   0  0  0  0  0  0  0  0  0  0  0  0
  1  2  1  0  0  0  0
  2  3  1  0  0  0  0
  2  4  1  0  0  0  0
  4  5  1  0  0  0  0
  5  6  1  0  0  0  0
  6  7  1  0  0  0  0
  7  8  2  0  0  0  0
  8  9  1  0  0  0  0
  9 10  2  0  0  0  0
 10 11  1  0  0  0  0
  6 11  2  0  0  0  0
 11 12  1  0  0  0  0
 12 13  2  0  0  0  0
 13 14  1  0  0  0  0
 10 14  1  0  0  0  0
 14 15  1  0  0  0  0
 15 16  1  0  0  0  0
 16 17  1  0  0  0  0
 16 18  1  0  0  0  0
 18 19  1  0  0  0  0
 19 20  1  0  0  0  0
 20 21  1  0  0  0  0
 16 21  1  0  0  0  0
 21 22  1  0  0  0  0
  5 23  1  0  0  0  0
 23 24  1  0  0  0  0
 24 25  1  0  0  0  0
 25 26  1  0  0  0  0
 26 27  1  0  0  0  0
 26 28  1  0  0  0  0
 28 29  1  0  0  0  0
 23 29  1  0  0  0  0
M  END
>  <Catalog ID>
Z2760944277

>  <Plate_ID>
2026983-X50-03

>  <Well>
F09

>  <V, µL>
50

>  <Conc, mM>
10

>  <Formula>
C21H34N6O2

>  <MW>
402.5337

>  <Purity>
95.46

>  <PO>
5A-64168

>  <MW_salt>
0

>  <Stereochem.data>
Diastereomeric mixture

>  <Geometric.isomer>
Unknown

>  <Chemical name>
2-methyl-3-({6-[(1-methylpiperidin-4-yl)(2-methylpropyl)amino]-9H-purin-9-yl}methyl)oxolan-3-ol

>  <ClogP>
1,489

>  <logS>
-3,419

>  <HBD>
1

>  <HBA>
7

>  <TPSA>
79,54

>  <RotBonds>
6

$$$$

  Mrv1925 04172511352D          

 14 15  0  0  0  0            999 V2000
    0.7145    6.7661    0.0000 C   0  0  0  0  0  0  0  0  0  0  0  0
    0.7145    5.9411    0.0000 C   0  0  0  0  0  0  0  0  0  0  0  0
    1.4289    5.5286    0.0000 C   0  0  0  0  0  0  0  0  0  0  0  0
    1.4289    4.7036    0.0000 C   0  0  0  0  0  0  0  0  0  0  0  0
    0.7145    4.2911    0.0000 C   0  0  0  0  0  0  0  0  0  0  0  0
    0.0000    4.7036    0.0000 N   0  0  0  0  0  0  0  0  0  0  0  0
    0.0000    5.5286    0.0000 N   0  0  0  0  0  0  0  0  0  0  0  0
    0.7145    3.4661    0.0000 N   0  0  0  0  0  0  0  0  0  0  0  0
    1.3819    2.9812    0.0000 C   0  0  0  0  0  0  0  0  0  0  0  0
    1.1270    2.1965    0.0000 C   0  0  0  0  0  0  0  0  0  0  0  0
    0.3020    2.1965    0.0000 C   0  0  0  0  0  0  0  0  0  0  0  0
    0.0470    2.9812    0.0000 C   0  0  0  0  0  0  0  0  0  0  0  0
   -0.7376    3.2361    0.0000 C   0  0  0  0  0  0  0  0  0  0  0  0
   -1.3507    2.6841    0.0000 O   0  0  0  0  0  0  0  0  0  0  0  0
  1  2  1  0  0  0  0
  2  3  1  0  0  0  0
  3  4  2  0  0  0  0
  4  5  1  0  0  0  0
  5  6  2  0  0  0  0
  6  7  1  0  0  0  0
  2  7  2  0  0  0  0
  5  8  1  0  0  0  0
  8  9  1  0  0  0  0
  9 10  1  0  0  0  0
 10 11  1  0  0  0  0
 11 12  1  0  0  0  0
  8 12  1  0  0  0  0
 12 13  1  0  0  0  0
 13 14  1  0  0  0  0
M  END
>  <Catalog ID>
Z817034056

>  <Plate_ID>
2026983-X50-03

>  <Well>
G09

>  <V, µL>
50

>  <Conc, mM>
10

>  <Formula>
C10H15N3O

>  <MW>
193.2456

>  <Purity>
100

>  <PO>
5A-64168

>  <MW_salt>
0

>  <Stereochem.data>
Racemic or presumed racemic or meso

>  <Geometric.isomer>
None

>  <Chemical name>
[1-(6-methylpyridazin-3-yl)pyrrolidin-2-yl]methanol

>  <ClogP>
0,306

>  <logS>
-1,23

>  <HBD>
1

>  <HBA>
4

>  <TPSA>
49,25

>  <RotBonds>
2

$$$$

  Mrv1925 04172511352D          

 28 30  0  0  0  0            999 V2000
   -2.1434   -4.5375    0.0000 C   0  0  0  0  0  0  0  0  0  0  0  0
   -2.1434   -3.7125    0.0000 C   0  0  0  0  0  0  0  0  0  0  0  0
   -2.8579   -3.3000    0.0000 C   0  0  0  0  0  0  0  0  0  0  0  0
   -2.8579   -2.4750    0.0000 C   0  0  0  0  0  0  0  0  0  0  0  0
   -2.1434   -2.0625    0.0000 C   0  0  0  0  0  0  0  0  0  0  0  0
   -2.1434   -1.2375    0.0000 C   0  0  0  0  0  0  0  0  0  0  0  0
   -1.4289   -2.4750    0.0000 C   0  0  0  0  0  0  0  0  0  0  0  0
   -0.7145   -2.0625    0.0000 O   0  0  0  0  0  0  0  0  0  0  0  0
    0.0000   -2.4750    0.0000 C   0  0  0  0  0  0  0  0  0  0  0  0
    0.7145   -2.0625    0.0000 C   0  0  0  0  0  0  0  0  0  0  0  0
    0.7145   -1.2375    0.0000 O   0  0  0  0  0  0  0  0  0  0  0  0
    1.4289   -2.4750    0.0000 C   0  0  0  0  0  0  0  0  0  0  0  0
    2.1434   -2.0625    0.0000 N   0  0  0  0  0  0  0  0  0  0  0  0
    2.1434   -1.2375    0.0000 C   0  0  0  0  0  0  0  0  0  0  0  0
    1.4289   -0.8250    0.0000 O   0  0  0  0  0  0  0  0  0  0  0  0
    2.8579   -0.8250    0.0000 C   0  0  0  0  0  0  0  0  0  0  0  0
    2.8579    0.0000    0.0000 F   0  0  0  0  0  0  0  0  0  0  0  0
    3.5724   -1.2375    0.0000 C   0  0  0  0  0  0  0  0  0  0  0  0
    3.5724   -2.0625    0.0000 N   0  0  0  0  0  0  0  0  0  0  0  0
    2.8579   -2.4750    0.0000 C   0  0  0  0  0  0  0  0  0  0  0  0
    2.8579   -3.3000    0.0000 O   0  0  0  0  0  0  0  0  0  0  0  0
    4.2868   -2.4750    0.0000 C   0  0  0  0  0  0  0  0  0  0  0  0
    5.0405   -2.1394    0.0000 C   0  0  0  0  0  0  0  0  0  0  0  0
    5.5925   -2.7525    0.0000 C   0  0  0  0  0  0  0  0  0  0  0  0
    5.1800   -3.4670    0.0000 C   0  0  0  0  0  0  0  0  0  0  0  0
    4.3731   -3.2955    0.0000 O   0  0  0  0  0  0  0  0  0  0  0  0
   -1.4289   -3.3000    0.0000 C   0  0  0  0  0  0  0  0  0  0  0  0
   -0.7145   -3.7125    0.0000 C   0  0  0  0  0  0  0  0  0  0  0  0
  1  2  1  0  0  0  0
  2  3  1  0  0  0  0
  3  4  2  0  0  0  0
  4  5  1  0  0  0  0
  5  6  1  0  0  0  0
  5  7  2  0  0  0  0
  7  8  1  0  0  0  0
  8  9  1  0  0  0  0
  9 10  1  0  0  0  0
 10 11  1  0  0  0  0
 10 12  1  0  0  0  0
 12 13  1  0  0  0  0
 13 14  1  0  0  0  0
 14 15  2  0  0  0  0
 14 16  1  0  0  0  0
 16 17  1  0  0  0  0
 16 18  2  0  0  0  0
 18 19  1  0  0  0  0
 19 20  1  0  0  0  0
 13 20  1  0  0  0  0
 20 21  2  0  0  0  0
 19 22  1  0  0  0  0
 22 23  1  0  0  0  0
 23 24  1  0  0  0  0
 24 25  1  0  0  0  0
 25 26  1  0  0  0  0
 22 26  1  0  0  0  0
  7 27  1  0  0  0  0
  2 27  2  0  0  0  0
 27 28  1  0  0  0  0
M  END
>  <Catalog ID>
Z1516474319

>  <Plate_ID>
2026983-X50-03

>  <Well>
H09

>  <V, µL>
50

>  <Conc, mM>
10

>  <Formula>
C20H25FN2O5

>  <MW>
392.4213

>  <Purity>
100

>  <PO>
5A-64168

>  <MW_salt>
0

>  <Stereochem.data>
Diastereomeric mixture

>  <Geometric.isomer>
None

>  <Chemical name>
5-fluoro-3-[2-hydroxy-3-(2,3,6-trimethylphenoxy)propyl]-1-(oxolan-2-yl)-1,2,3,4-tetrahydropyrimidine-2,4-dione

>  <ClogP>
3,452

>  <logS>
-3,4

>  <HBD>
1

>  <HBA>
5

>  <TPSA>
79,31

>  <RotBonds>
6

$$$$

  Mrv1925 04172511352D          

 19 20  0  0  0  0            999 V2000
    1.4289   -4.1250    0.0000 O   0  0  0  0  0  0  0  0  0  0  0  0
    2.1434   -3.7125    0.0000 C   0  0  0  0  0  0  0  0  0  0  0  0
    2.1434   -2.8875    0.0000 O   0  0  0  0  0  0  0  0  0  0  0  0
    2.8579   -4.1250    0.0000 C   0  0  0  0  0  0  0  0  0  0  0  0
    3.5724   -3.7125    0.0000 N   0  0  0  0  0  0  0  0  0  0  0  0
    4.2868   -4.1250    0.0000 C   0  0  0  0  0  0  0  0  0  0  0  0
    4.2868   -4.9500    0.0000 O   0  0  0  0  0  0  0  0  0  0  0  0
    5.0013   -3.7125    0.0000 C   0  0  0  0  0  0  0  0  0  0  0  0
    5.7158   -4.1250    0.0000 N   0  0  0  0  0  0  0  0  0  0  0  0
    6.4302   -3.7125    0.0000 C   0  0  0  0  0  0  0  0  0  0  0  0
    7.1447   -4.1250    0.0000 C   0  0  0  0  0  0  0  0  0  0  0  0
    7.1447   -4.9500    0.0000 C   0  0  0  0  0  0  0  0  0  0  0  0
    7.8592   -5.3625    0.0000 O   0  0  0  0  0  0  0  0  0  0  0  0
    6.4302   -5.3625    0.0000 N   0  0  0  0  0  0  0  0  0  0  0  0
    5.7158   -4.9500    0.0000 C   0  0  0  0  0  0  0  0  0  0  0  0
    5.0013   -5.3625    0.0000 O   0  0  0  0  0  0  0  0  0  0  0  0
    3.5724   -2.8875    0.0000 C   0  0  0  0  0  0  0  0  0  0  0  0
    3.1599   -2.1730    0.0000 C   0  0  0  0  0  0  0  0  0  0  0  0
    3.9849   -2.1730    0.0000 C   0  0  0  0  0  0  0  0  0  0  0  0
  1  2  2  0  0  0  0
  2  3  1  0  0  0  0
  2  4  1  0  0  0  0
  4  5  1  0  0  0  0
  5  6  1  0  0  0  0
  6  7  2  0  0  0  0
  6  8  1  0  0  0  0
  8  9  1  0  0  0  0
  9 10  1  0  0  0  0
 10 11  2  0  0  0  0
 11 12  1  0  0  0  0
 12 13  2  0  0  0  0
 12 14  1  0  0  0  0
 14 15  1  0  0  0  0
  9 15  1  0  0  0  0
 15 16  2  0  0  0  0
  5 17  1  0  0  0  0
 17 18  1  0  0  0  0
 18 19  1  0  0  0  0
 17 19  1  0  0  0  0
M  END
>  <Catalog ID>
Z594160432

>  <Plate_ID>
2026983-X50-03

>  <Well>
A10

>  <V, µL>
50

>  <Conc, mM>
10

>  <Formula>
C11H13N3O5

>  <MW>
267.238

>  <Purity>
98.64

>  <PO>
5A-64168

>  <MW_salt>
0

>  <Stereochem.data>
Achiral

>  <Geometric.isomer>
None

>  <Chemical name>
2-[N-cyclopropyl-2-(2,4-dioxo-1,2,3,4-tetrahydropyrimidin-1-yl)acetamido]acetic acid

>  <ClogP>
-0,355

>  <logS>
-1,289

>  <HBD>
2

>  <HBA>
5

>  <TPSA>
107,02

>  <RotBonds>
5

$$$$

  Mrv1925 04172511352D          

 17 18  0  0  0  0            999 V2000
    0.3260   -1.5751    0.0000 C   0  0  0  0  0  0  0  0  0  0  0  0
    0.4693   -0.7626    0.0000 O   0  0  0  0  0  0  0  0  0  0  0  0
    1.2445   -0.4805    0.0000 C   0  0  0  0  0  0  0  0  0  0  0  0
    1.3878    0.3320    0.0000 O   0  0  0  0  0  0  0  0  0  0  0  0
    1.8765   -1.0108    0.0000 C   0  0  0  0  0  0  0  0  0  0  0  0
    2.5085   -0.4805    0.0000 C   0  0  0  0  0  0  0  0  0  0  0  0
    3.2838   -0.7626    0.0000 N   0  0  0  0  0  0  0  0  0  0  0  0
    3.9158   -0.2323    0.0000 C   0  0  0  0  0  0  0  0  0  0  0  0
    4.6910   -0.5145    0.0000 C   0  0  0  0  0  0  0  0  0  0  0  0
    4.8343   -1.3270    0.0000 C   0  0  0  0  0  0  0  0  0  0  0  0
    5.6095   -1.6091    0.0000 O   0  0  0  0  0  0  0  0  0  0  0  0
    4.2023   -1.8573    0.0000 N   0  0  0  0  0  0  0  0  0  0  0  0
    4.3455   -2.6697    0.0000 C   0  0  0  0  0  0  0  0  0  0  0  0
    3.4270   -1.5751    0.0000 C   0  0  0  0  0  0  0  0  0  0  0  0
    2.7950   -2.1054    0.0000 O   0  0  0  0  0  0  0  0  0  0  0  0
    1.4640   -1.7252    0.0000 C   0  0  0  0  0  0  0  0  0  0  0  0
    2.2890   -1.7252    0.0000 C   0  0  0  0  0  0  0  0  0  0  0  0
  1  2  1  0  0  0  0
  2  3  1  0  0  0  0
  3  4  2  0  0  0  0
  3  5  1  0  0  0  0
  5  6  1  0  0  0  0
  6  7  1  0  0  0  0
  7  8  1  0  0  0  0
  8  9  2  0  0  0  0
  9 10  1  0  0  0  0
 10 11  2  0  0  0  0
 10 12  1  0  0  0  0
 12 13  1  0  0  0  0
 12 14  1  0  0  0  0
  7 14  1  0  0  0  0
 14 15  2  0  0  0  0
  5 16  1  0  0  0  0
 16 17  1  0  0  0  0
  5 17  1  0  0  0  0
M  END
>  <Catalog ID>
Z2695600718

>  <Plate_ID>
2026983-X50-03

>  <Well>
B10

>  <V, µL>
50

>  <Conc, mM>
10

>  <Formula>
C11H14N2O4

>  <MW>
238.2399

>  <Purity>
97.9

>  <PO>
5A-64168

>  <MW_salt>
0

>  <Stereochem.data>
Achiral

>  <Geometric.isomer>
None

>  <Chemical name>
methyl 1-[(3-methyl-2,4-dioxo-1,2,3,4-tetrahydropyrimidin-1-yl)methyl]cyclopropane-1-carboxylate

>  <ClogP>
0,314

>  <logS>
-0,361

>  <HBD>
0

>  <HBA>
3

>  <TPSA>
66,92

>  <RotBonds>
4

$$$$

  Mrv1925 04172511352D          

 27 31  0  0  0  0            999 V2000
    1.9878   -2.1500    0.0000 O   0  0  0  0  0  0  0  0  0  0  0  0
    1.4358   -2.7631    0.0000 C   0  0  0  0  0  0  0  0  0  0  0  0
    0.8838   -2.1500    0.0000 C   0  0  0  0  0  0  0  0  0  0  0  0
    1.1387   -1.3654    0.0000 N   0  0  0  0  0  0  0  0  0  0  0  0
    0.6538   -0.6979    0.0000 C   0  0  0  0  0  0  0  0  0  0  0  0
    1.1387   -0.0305    0.0000 N   0  0  0  0  0  0  0  0  0  0  0  0
    1.9233   -0.2854    0.0000 C   0  0  0  0  0  0  0  0  0  0  0  0
    2.6378    0.1271    0.0000 C   0  0  0  0  0  0  0  0  0  0  0  0
    3.3523   -0.2854    0.0000 N   0  0  0  0  0  0  0  0  0  0  0  0
    3.3523   -1.1104    0.0000 C   0  0  0  0  0  0  0  0  0  0  0  0
    2.6378   -1.5229    0.0000 N   0  0  0  0  0  0  0  0  0  0  0  0
    1.9233   -1.1104    0.0000 C   0  0  0  0  0  0  0  0  0  0  0  0
    2.6378    0.9521    0.0000 N   0  0  0  0  0  0  0  0  0  0  0  0
    1.9233    1.3646    0.0000 C   0  0  0  0  0  0  0  0  0  0  0  0
    1.9233    2.1896    0.0000 C   0  0  0  0  0  0  0  0  0  0  0  0
    2.6378    2.6021    0.0000 C   0  0  0  0  0  0  0  0  0  0  0  0
    3.3523    2.1896    0.0000 C   0  0  0  0  0  0  0  0  0  0  0  0
    3.3523    1.3646    0.0000 C   0  0  0  0  0  0  0  0  0  0  0  0
    4.0668    2.6021    0.0000 O   0  0  0  0  0  0  0  0  0  0  0  0
    4.0668    3.4271    0.0000 C   0  0  0  0  0  0  0  0  0  0  0  0
    4.7812    3.8396    0.0000 C   0  0  0  0  0  0  0  0  0  0  0  0
    5.1937    4.5540    0.0000 C   0  0  0  0  0  0  0  0  0  0  0  0
    5.6062    3.8396    0.0000 C   0  0  0  0  0  0  0  0  0  0  0  0
    2.1033   -3.2480    0.0000 C   0  0  0  0  0  0  0  0  0  0  0  0
    1.8483   -4.0326    0.0000 C   0  0  0  0  0  0  0  0  0  0  0  0
    1.0233   -4.0326    0.0000 O   0  0  0  0  0  0  0  0  0  0  0  0
    0.7684   -3.2480    0.0000 C   0  0  0  0  0  0  0  0  0  0  0  0
  1  2  1  0  0  0  0
  2  3  1  0  0  0  0
  3  4  1  0  0  0  0
  4  5  1  0  0  0  0
  5  6  2  0  0  0  0
  6  7  1  0  0  0  0
  7  8  2  0  0  0  0
  8  9  1  0  0  0  0
  9 10  2  0  0  0  0
 10 11  1  0  0  0  0
 11 12  2  0  0  0  0
  7 12  1  0  0  0  0
  4 12  1  0  0  0  0
  8 13  1  0  0  0  0
 13 14  1  0  0  0  0
 14 15  1  0  0  0  0
 15 16  1  0  0  0  0
 16 17  1  0  0  0  0
 17 18  1  0  0  0  0
 13 18  1  0  0  0  0
 17 19  1  0  0  0  0
 19 20  1  0  0  0  0
 20 21  1  0  0  0  0
 21 22  1  0  0  0  0
 22 23  1  0  0  0  0
 21 23  1  0  0  0  0
  2 24  1  0  0  0  0
 24 25  1  0  0  0  0
 25 26  1  0  0  0  0
 26 27  1  0  0  0  0
  2 27  1  0  0  0  0
M  END
>  <Catalog ID>
Z2760964357

>  <Plate_ID>
2026983-X50-03

>  <Well>
C10

>  <V, µL>
50

>  <Conc, mM>
10

>  <Formula>
C19H27N5O3

>  <MW>
373.4494

>  <Purity>
100

>  <PO>
5A-64168

>  <MW_salt>
0

>  <Stereochem.data>
Diastereomeric mixture

>  <Geometric.isomer>
None

>  <Chemical name>
3-({6-[3-(cyclopropylmethoxy)piperidin-1-yl]-9H-purin-9-yl}methyl)oxolan-3-ol

>  <ClogP>
0,556

>  <logS>
-2,997

>  <HBD>
1

>  <HBA>
7

>  <TPSA>
85,53

>  <RotBonds>
6

$$$$

  Mrv1925 04172511352D          

 22 23  0  0  0  0            999 V2000
    3.0631    8.4663    0.0000 C   0  0  0  0  0  0  0  0  0  0  0  0
    2.8916    7.6593    0.0000 C   0  0  0  0  0  0  0  0  0  0  0  0
    3.5047    7.1073    0.0000 C   0  0  0  0  0  0  0  0  0  0  0  0
    2.1069    7.4044    0.0000 N   0  0  0  0  0  0  0  0  0  0  0  0
    1.9354    6.5974    0.0000 C   0  0  0  0  0  0  0  0  0  0  0  0
    1.1508    6.3425    0.0000 C   0  0  0  0  0  0  0  0  0  0  0  0
    0.9793    5.5355    0.0000 C   0  0  0  0  0  0  0  0  0  0  0  0
    0.1946    5.2806    0.0000 N   0  0  0  0  0  0  0  0  0  0  0  0
    0.0231    4.4736    0.0000 C   0  0  0  0  0  0  0  0  0  0  0  0
    0.6362    3.9216    0.0000 O   0  0  0  0  0  0  0  0  0  0  0  0
   -0.7615    4.2187    0.0000 N   0  0  0  0  0  0  0  0  0  0  0  0
   -1.0164    3.4340    0.0000 C   0  0  0  0  0  0  0  0  0  0  0  0
   -1.8414    3.4340    0.0000 C   0  0  0  0  0  0  0  0  0  0  0  0
   -2.0964    4.2187    0.0000 C   0  0  0  0  0  0  0  0  0  0  0  0
   -1.4289    4.7036    0.0000 C   0  0  0  0  0  0  0  0  0  0  0  0
   -1.8339    5.4223    0.0000 C   0  0  0  0  0  0  0  0  0  0  0  0
   -1.0239    5.4223    0.0000 C   0  0  0  0  0  0  0  0  0  0  0  0
    0.5377    6.8945    0.0000 C   0  0  0  0  0  0  0  0  0  0  0  0
   -0.2469    6.6396    0.0000 O   0  0  0  0  0  0  0  0  0  0  0  0
    0.7092    7.7015    0.0000 N   0  0  0  0  0  0  0  0  0  0  0  0
    1.4938    7.9564    0.0000 C   0  0  0  0  0  0  0  0  0  0  0  0
    1.6654    8.7634    0.0000 O   0  0  0  0  0  0  0  0  0  0  0  0
  1  2  1  0  0  0  0
  2  3  1  0  0  0  0
  2  4  1  0  0  0  0
  4  5  1  0  0  0  0
  5  6  2  0  0  0  0
  6  7  1  0  0  0  0
  7  8  1  0  0  0  0
  8  9  1  0  0  0  0
  9 10  2  0  0  0  0
  9 11  1  0  0  0  0
 11 12  1  0  0  0  0
 12 13  1  0  0  0  0
 13 14  1  0  0  0  0
 14 15  1  0  0  0  0
 11 15  1  0  0  0  0
 15 16  1  0  0  0  0
 15 17  1  0  0  0  0
  6 18  1  0  0  0  0
 18 19  2  0  0  0  0
 18 20  1  0  0  0  0
 20 21  1  0  0  0  0
  4 21  1  0  0  0  0
 21 22  2  0  0  0  0
M  END
>  <Catalog ID>
Z3141239062

>  <Plate_ID>
2026983-X50-03

>  <Well>
D10

>  <V, µL>
50

>  <Conc, mM>
10

>  <Formula>
C15H24N4O3

>  <MW>
308.3761

>  <Purity>
100

>  <PO>
5A-64168

>  <MW_salt>
0

>  <Stereochem.data>
Achiral

>  <Geometric.isomer>
None

>  <Chemical name>
N-{[2,4-dioxo-1-(propan-2-yl)-1,2,3,4-tetrahydropyrimidin-5-yl]methyl}-2,2-dimethylpyrrolidine-1-carboxamide

>  <ClogP>
0,444

>  <logS>
-2,364

>  <HBD>
2

>  <HBA>
3

>  <TPSA>
81,75

>  <RotBonds>
3

$$$$

  Mrv1925 04172511352D          

 27 31  0  0  0  0            999 V2000
    1.6553    1.4855    0.0000 N   0  0  0  0  0  0  0  0  0  0  0  0
    1.8269    2.2925    0.0000 C   0  0  0  0  0  0  0  0  0  0  0  0
    1.2138    2.8445    0.0000 O   0  0  0  0  0  0  0  0  0  0  0  0
    2.6115    2.5474    0.0000 C   0  0  0  0  0  0  0  0  0  0  0  0
    2.8664    3.3320    0.0000 C   0  0  0  0  0  0  0  0  0  0  0  0
    2.6115    4.1167    0.0000 C   0  0  0  0  0  0  0  0  0  0  0  0
    3.2789    4.6016    0.0000 C   0  0  0  0  0  0  0  0  0  0  0  0
    3.9464    4.1167    0.0000 C   0  0  0  0  0  0  0  0  0  0  0  0
    3.6914    3.3320    0.0000 C   0  0  0  0  0  0  0  0  0  0  0  0
    3.9464    2.5474    0.0000 C   0  0  0  0  0  0  0  0  0  0  0  0
    3.2789    2.0625    0.0000 N   0  0  0  0  0  0  0  0  0  0  0  0
    3.2789    1.2375    0.0000 C   0  0  0  0  0  0  0  0  0  0  0  0
    3.9934    0.8250    0.0000 N   0  0  0  0  0  0  0  0  0  0  0  0
    3.9934    0.0000    0.0000 C   0  0  0  0  0  0  0  0  0  0  0  0
    3.2789   -0.4125    0.0000 N   0  0  0  0  0  0  0  0  0  0  0  0
    2.5645    0.0000    0.0000 C   0  0  0  0  0  0  0  0  0  0  0  0
    2.5645    0.8250    0.0000 C   0  0  0  0  0  0  0  0  0  0  0  0
    1.7798    1.0799    0.0000 N   0  0  0  0  0  0  0  0  0  0  0  0
    1.2949    0.4125    0.0000 C   0  0  0  0  0  0  0  0  0  0  0  0
    1.7798   -0.2549    0.0000 N   0  0  0  0  0  0  0  0  0  0  0  0
    1.5249   -1.0396    0.0000 C   0  0  0  0  0  0  0  0  0  0  0  0
    0.7179   -1.2111    0.0000 C   0  0  0  0  0  0  0  0  0  0  0  0
    0.5464   -0.4041    0.0000 C   0  0  0  0  0  0  0  0  0  0  0  0
   -0.2382   -0.1492    0.0000 O   0  0  0  0  0  0  0  0  0  0  0  0
    0.8895   -2.0181    0.0000 C   0  0  0  0  0  0  0  0  0  0  0  0
    0.0825   -2.1896    0.0000 O   0  0  0  0  0  0  0  0  0  0  0  0
   -0.0890   -1.3826    0.0000 C   0  0  0  0  0  0  0  0  0  0  0  0
  1  2  1  0  0  0  0
  2  3  2  0  0  0  0
  2  4  1  0  0  0  0
  4  5  1  0  0  0  0
  5  6  1  0  0  0  0
  6  7  1  0  0  0  0
  7  8  1  0  0  0  0
  8  9  1  0  0  0  0
  5  9  1  0  0  0  0
  9 10  1  0  0  0  0
 10 11  1  0  0  0  0
  4 11  1  0  0  0  0
 11 12  1  0  0  0  0
 12 13  1  0  0  0  0
 13 14  2  0  0  0  0
 14 15  1  0  0  0  0
 15 16  2  0  0  0  0
 16 17  1  0  0  0  0
 12 17  2  0  0  0  0
 17 18  1  0  0  0  0
 18 19  2  0  0  0  0
 19 20  1  0  0  0  0
 16 20  1  0  0  0  0
 20 21  1  0  0  0  0
 21 22  1  0  0  0  0
 22 23  1  0  0  0  0
 23 24  1  0  0  0  0
 22 25  1  0  0  0  0
 25 26  1  0  0  0  0
 26 27  1  0  0  0  0
 22 27  1  0  0  0  0
M  END
>  <Catalog ID>
Z2760963014

>  <Plate_ID>
2026983-X50-03

>  <Well>
E10

>  <V, µL>
50

>  <Conc, mM>
10

>  <Formula>
C18H24N6O3

>  <MW>
372.4216

>  <Purity>
95.41

>  <PO>
5A-64168

>  <MW_salt>
0

>  <Stereochem.data>
Diastereomeric mixture

>  <Geometric.isomer>
None

>  <Chemical name>
2-(9-{[3-(hydroxymethyl)oxetan-3-yl]methyl}-9H-purin-6-yl)-octahydrocyclopenta[c]pyrrole-1-carboxamide

>  <ClogP>
-1,731

>  <logS>
-3,516

>  <HBD>
2

>  <HBA>
7

>  <TPSA>
119,39

>  <RotBonds>
5

$$$$

  Mrv1925 04172511352D          

  0  0  0     0  0            999 V3000
M  V30 BEGIN CTAB
M  V30 COUNTS 28 32 0 0 0
M  V30 BEGIN ATOM
M  V30 1 C -7.62 -3.6573 0 0
M  V30 2 C -7.6039 -2.1174 0 0
M  V30 3 O -8.8402 -1.1992 0 0
M  V30 4 C -8.349 0.2604 0 0
M  V30 5 C -6.8091 0.2443 0 0
M  V30 6 C -6.3486 -1.2253 0 0
M  V30 7 O -4.8359 -0.9367 0 0
M  V30 8 C -5.3181 -2.3697 0 0
M  V30 9 N -3.8118 -2.0495 0 0
M  V30 10 C -3.1854 -0.6427 0 0
M  V30 11 N -1.6539 -0.8037 0 0
M  V30 12 C -1.3337 -2.31 0 0
M  V30 13 C 0 -3.08 0 0
M  V30 14 N 0 -4.62 0 0
M  V30 15 C -1.3337 -5.39 0 0
M  V30 16 N -2.6674 -4.62 0 0
M  V30 17 C -2.6674 -3.08 0 0
M  V30 18 N 1.3337 -2.31 0 0
M  V30 19 C 1.3337 -0.77 0 0
M  V30 20 C 2.6674 0 0 0
M  V30 21 C 4.001 -0.77 0 0 CFG=2
M  V30 22 O 5.3347 0 0 0
M  V30 23 C 6.6684 -0.77 0 0
M  V30 24 C 6.6684 -2.31 0 0
M  V30 25 O 8.0021 -3.08 0 0
M  V30 26 N 5.3347 -3.08 0 0
M  V30 27 C 4.001 -2.31 0 0 CFG=1
M  V30 28 C 2.6674 -3.08 0 0
M  V30 END ATOM
M  V30 BEGIN BOND
M  V30 1 1 1 2
M  V30 2 1 2 3
M  V30 3 1 3 4
M  V30 4 1 4 5
M  V30 5 1 5 6
M  V30 6 1 2 6
M  V30 7 1 6 7
M  V30 8 1 6 8
M  V30 9 1 8 9
M  V30 10 1 9 10
M  V30 11 2 10 11
M  V30 12 1 11 12
M  V30 13 1 12 13
M  V30 14 2 13 14
M  V30 15 1 14 15
M  V30 16 2 15 16
M  V30 17 1 16 17
M  V30 18 2 12 17
M  V30 19 1 9 17
M  V30 20 1 13 18
M  V30 21 1 18 19
M  V30 22 1 19 20
M  V30 23 1 21 20
M  V30 24 1 21 22 CFG=3
M  V30 25 1 22 23
M  V30 26 1 23 24
M  V30 27 2 24 25
M  V30 28 1 24 26
M  V30 29 1 27 26 CFG=1
M  V30 30 1 21 27
M  V30 31 1 27 28
M  V30 32 1 18 28
M  V30 END BOND
M  V30 BEGIN COLLECTION
M  V30 MDLV30/STERAC1 ATOMS=(2 21 27)
M  V30 END COLLECTION
M  V30 END CTAB
M  END
>  <Catalog ID>
Z2760974342

>  <Plate_ID>
2026983-X50-03

>  <Well>
F10

>  <V, µL>
50

>  <Conc, mM>
10

>  <Formula>
C18H24N6O4

>  <MW>
388.421

>  <Purity>
97

>  <PO>
5A-64168

>  <MW_salt>
0

>  <Stereochem.data>
Diastereomeric mixture

>  <Geometric.isomer>
None

>  <Chemical name>
rac-(4aR,8aR)-6-{9-[(3-hydroxy-2-methyloxolan-3-yl)methyl]-9H-purin-6-yl}-octahydro-2H-pyrido[4,3-b][1,4]oxazin-3-one

>  <ClogP>
-1,262

>  <logS>
-2,958

>  <HBD>
2

>  <HBA>
8

>  <TPSA>
114,63

>  <RotBonds>
3

$$$$

  Mrv1925 04172511352D          

 28 31  0  0  0  0            999 V2000
    2.5645    5.7750    0.0000 N   0  0  0  0  0  0  0  0  0  0  0  0
    2.5645    4.9500    0.0000 C   0  0  0  0  0  0  0  0  0  0  0  0
    1.8500    4.5375    0.0000 O   0  0  0  0  0  0  0  0  0  0  0  0
    3.2789    4.5375    0.0000 C   0  0  0  0  0  0  0  0  0  0  0  0
    3.2789    3.7125    0.0000 N   0  0  0  0  0  0  0  0  0  0  0  0
    3.9934    3.3000    0.0000 C   0  0  0  0  0  0  0  0  0  0  0  0
    3.9934    2.4750    0.0000 C   0  0  0  0  0  0  0  0  0  0  0  0
    3.2789    2.0625    0.0000 N   0  0  0  0  0  0  0  0  0  0  0  0
    2.5645    2.4750    0.0000 C   0  0  0  0  0  0  0  0  0  0  0  0
    2.5645    3.3000    0.0000 C   0  0  0  0  0  0  0  0  0  0  0  0
    1.8500    3.7125    0.0000 O   0  0  0  0  0  0  0  0  0  0  0  0
    3.2789    1.2375    0.0000 C   0  0  0  0  0  0  0  0  0  0  0  0
    3.9934    0.8250    0.0000 N   0  0  0  0  0  0  0  0  0  0  0  0
    3.9934    0.0000    0.0000 C   0  0  0  0  0  0  0  0  0  0  0  0
    3.2789   -0.4125    0.0000 N   0  0  0  0  0  0  0  0  0  0  0  0
    2.5645    0.0000    0.0000 C   0  0  0  0  0  0  0  0  0  0  0  0
    2.5645    0.8250    0.0000 C   0  0  0  0  0  0  0  0  0  0  0  0
    1.7798    1.0799    0.0000 N   0  0  0  0  0  0  0  0  0  0  0  0
    1.2949    0.4125    0.0000 C   0  0  0  0  0  0  0  0  0  0  0  0
    1.7798   -0.2549    0.0000 N   0  0  0  0  0  0  0  0  0  0  0  0
    1.5249   -1.0396    0.0000 C   0  0  0  0  0  0  0  0  0  0  0  0
    2.0769   -1.6527    0.0000 C   0  0  0  0  0  0  0  0  0  0  0  0
    2.8839   -1.4811    0.0000 O   0  0  0  0  0  0  0  0  0  0  0  0
    1.8220   -2.4373    0.0000 C   0  0  0  0  0  0  0  0  0  0  0  0
    2.3069   -3.1047    0.0000 C   0  0  0  0  0  0  0  0  0  0  0  0
    1.8220   -3.7722    0.0000 C   0  0  0  0  0  0  0  0  0  0  0  0
    1.0374   -3.5172    0.0000 C   0  0  0  0  0  0  0  0  0  0  0  0
    1.0374   -2.6922    0.0000 O   0  0  0  0  0  0  0  0  0  0  0  0
  1  2  1  0  0  0  0
  2  3  2  0  0  0  0
  2  4  1  0  0  0  0
  4  5  1  0  0  0  0
  5  6  1  0  0  0  0
  6  7  1  0  0  0  0
  7  8  1  0  0  0  0
  8  9  1  0  0  0  0
  9 10  1  0  0  0  0
  5 10  1  0  0  0  0
 10 11  2  0  0  0  0
  8 12  1  0  0  0  0
 12 13  1  0  0  0  0
 13 14  2  0  0  0  0
 14 15  1  0  0  0  0
 15 16  2  0  0  0  0
 16 17  1  0  0  0  0
 12 17  2  0  0  0  0
 17 18  1  0  0  0  0
 18 19  2  0  0  0  0
 19 20  1  0  0  0  0
 16 20  1  0  0  0  0
 20 21  1  0  0  0  0
 21 22  1  0  0  0  0
 22 23  1  0  0  0  0
 22 24  1  0  0  0  0
 24 25  1  0  0  0  0
 25 26  1  0  0  0  0
 26 27  1  0  0  0  0
 27 28  1  0  0  0  0
 24 28  1  0  0  0  0
M  END
>  <Catalog ID>
Z2760974967

>  <Plate_ID>
2026983-X50-03

>  <Well>
G10

>  <V, µL>
50

>  <Conc, mM>
10

>  <Formula>
C17H23N7O4

>  <MW>
389.409

>  <Purity>
96.48

>  <PO>
5A-64168

>  <MW_salt>
0

>  <Stereochem.data>
Diastereomeric mixture

>  <Geometric.isomer>
None

>  <Chemical name>
2-(4-{9-[2-hydroxy-2-(oxolan-2-yl)ethyl]-9H-purin-6-yl}-2-oxopiperazin-1-yl)acetamide

>  <ClogP>
-1,155

>  <logS>
-2,612

>  <HBD>
2

>  <HBA>
8

>  <TPSA>
139,7

>  <RotBonds>
6

$$$$

  Mrv1925 04172511352D          

 28 31  0  0  0  0            999 V2000
    0.8646   -3.5628    0.0000 C   0  0  0  0  0  0  0  0  0  0  0  0
    0.1544   -3.1429    0.0000 C   0  0  0  0  0  0  0  0  0  0  0  0
   -0.6027   -3.4705    0.0000 O   0  0  0  0  0  0  0  0  0  0  0  0
   -1.1483   -2.8517    0.0000 C   0  0  0  0  0  0  0  0  0  0  0  0
   -0.7283   -2.1416    0.0000 C   0  0  0  0  0  0  0  0  0  0  0  0
    0.0768   -2.3215    0.0000 C   0  0  0  0  0  0  0  0  0  0  0  0
    0.3481   -1.5424    0.0000 O   0  0  0  0  0  0  0  0  0  0  0  0
    0.8838   -2.1500    0.0000 C   0  0  0  0  0  0  0  0  0  0  0  0
    1.1387   -1.3654    0.0000 N   0  0  0  0  0  0  0  0  0  0  0  0
    0.6538   -0.6979    0.0000 C   0  0  0  0  0  0  0  0  0  0  0  0
    1.1387   -0.0305    0.0000 N   0  0  0  0  0  0  0  0  0  0  0  0
    1.9233   -0.2854    0.0000 C   0  0  0  0  0  0  0  0  0  0  0  0
    2.6378    0.1271    0.0000 C   0  0  0  0  0  0  0  0  0  0  0  0
    3.3523   -0.2854    0.0000 N   0  0  0  0  0  0  0  0  0  0  0  0
    3.3523   -1.1104    0.0000 C   0  0  0  0  0  0  0  0  0  0  0  0
    2.6378   -1.5229    0.0000 N   0  0  0  0  0  0  0  0  0  0  0  0
    1.9233   -1.1104    0.0000 C   0  0  0  0  0  0  0  0  0  0  0  0
    2.6378    0.9521    0.0000 N   0  0  0  0  0  0  0  0  0  0  0  0
    1.9704    1.4370    0.0000 C   0  0  0  0  0  0  0  0  0  0  0  0
    2.2253    2.2216    0.0000 C   0  0  0  0  0  0  0  0  0  0  0  0
    1.7404    2.8890    0.0000 O   0  0  0  0  0  0  0  0  0  0  0  0
    3.0503    2.2216    0.0000 N   0  0  0  0  0  0  0  0  0  0  0  0
    3.5352    2.8890    0.0000 C   0  0  0  0  0  0  0  0  0  0  0  0
    3.1997    3.6427    0.0000 C   0  0  0  0  0  0  0  0  0  0  0  0
    2.8641    4.3964    0.0000 F   0  0  0  0  0  0  0  0  0  0  0  0
    3.9534    3.9783    0.0000 F   0  0  0  0  0  0  0  0  0  0  0  0
    2.4460    3.3072    0.0000 F   0  0  0  0  0  0  0  0  0  0  0  0
    3.3053    1.4370    0.0000 C   0  0  0  0  0  0  0  0  0  0  0  0
  1  2  1  0  0  0  0
  2  3  1  0  0  0  0
  3  4  1  0  0  0  0
  4  5  1  0  0  0  0
  5  6  1  0  0  0  0
  2  6  1  0  0  0  0
  6  7  1  0  0  0  0
  6  8  1  0  0  0  0
  8  9  1  0  0  0  0
  9 10  1  0  0  0  0
 10 11  2  0  0  0  0
 11 12  1  0  0  0  0
 12 13  1  0  0  0  0
 13 14  2  0  0  0  0
 14 15  1  0  0  0  0
 15 16  2  0  0  0  0
 16 17  1  0  0  0  0
 12 17  2  0  0  0  0
  9 17  1  0  0  0  0
 13 18  1  0  0  0  0
 18 19  1  0  0  0  0
 19 20  1  0  0  0  0
 20 21  2  0  0  0  0
 20 22  1  0  0  0  0
 22 23  1  0  0  0  0
 23 24  1  0  0  0  0
 24 25  1  0  0  0  0
 24 26  1  0  0  0  0
 24 27  1  0  0  0  0
 22 28  1  0  0  0  0
 18 28  1  0  0  0  0
M  END
>  <Catalog ID>
Z2760968723

>  <Plate_ID>
2026983-X50-03

>  <Well>
H10

>  <V, µL>
50

>  <Conc, mM>
10

>  <Formula>
C16H19F3N6O3

>  <MW>
400.3557

>  <Purity>
100

>  <PO>
5A-64168

>  <MW_salt>
0

>  <Stereochem.data>
Diastereomeric mixture

>  <Geometric.isomer>
Unknown

>  <Chemical name>
1-{9-[(3-hydroxy-2-methyloxolan-3-yl)methyl]-9H-purin-6-yl}-3-(2,2,2-trifluoroethyl)imidazolidin-4-one

>  <ClogP>
-0,152

>  <logS>
-3,955

>  <HBD>
1

>  <HBA>
7

>  <TPSA>
96,61

>  <RotBonds>
5

$$$$

  Mrv1925 04172511352D          

 22 23  0  0  0  0            999 V2000
    2.7512   -1.7116    0.0000 C   0  0  0  0  0  0  0  0  0  0  0  0
    2.7512   -2.5366    0.0000 C   0  0  0  0  0  0  0  0  0  0  0  0
    3.4186   -3.0215    0.0000 C   0  0  0  0  0  0  0  0  0  0  0  0
    3.1637   -3.8062    0.0000 C   0  0  0  0  0  0  0  0  0  0  0  0
    2.3387   -3.8062    0.0000 C   0  0  0  0  0  0  0  0  0  0  0  0
    2.0837   -3.0215    0.0000 N   0  0  0  0  0  0  0  0  0  0  0  0
    1.2991   -2.7666    0.0000 C   0  0  0  0  0  0  0  0  0  0  0  0
    0.6860   -3.3186    0.0000 O   0  0  0  0  0  0  0  0  0  0  0  0
    1.1276   -1.9596    0.0000 N   0  0  0  0  0  0  0  0  0  0  0  0
    0.3430   -1.7047    0.0000 C   0  0  0  0  0  0  0  0  0  0  0  0
    0.1714   -0.8977    0.0000 C   0  0  0  0  0  0  0  0  0  0  0  0
   -0.6132   -0.6428    0.0000 C   0  0  0  0  0  0  0  0  0  0  0  0
   -0.7847    0.1642    0.0000 N   0  0  0  0  0  0  0  0  0  0  0  0
   -0.1716    0.7162    0.0000 C   0  0  0  0  0  0  0  0  0  0  0  0
   -0.3431    1.5232    0.0000 O   0  0  0  0  0  0  0  0  0  0  0  0
    0.6130    0.4613    0.0000 N   0  0  0  0  0  0  0  0  0  0  0  0
    0.7845   -0.3457    0.0000 C   0  0  0  0  0  0  0  0  0  0  0  0
    1.5692   -0.6006    0.0000 O   0  0  0  0  0  0  0  0  0  0  0  0
   -1.5693    0.4191    0.0000 C   0  0  0  0  0  0  0  0  0  0  0  0
   -2.3540    0.6741    0.0000 C   0  0  0  0  0  0  0  0  0  0  0  0
   -1.3144    1.2038    0.0000 C   0  0  0  0  0  0  0  0  0  0  0  0
   -1.8243   -0.3655    0.0000 C   0  0  0  0  0  0  0  0  0  0  0  0
  1  2  1  0  0  0  0
  2  3  1  0  0  0  0
  3  4  1  0  0  0  0
  4  5  1  0  0  0  0
  5  6  1  0  0  0  0
  2  6  1  0  0  0  0
  6  7  1  0  0  0  0
  7  8  2  0  0  0  0
  7  9  1  0  0  0  0
  9 10  1  0  0  0  0
 10 11  1  0  0  0  0
 11 12  2  0  0  0  0
 12 13  1  0  0  0  0
 13 14  1  0  0  0  0
 14 15  2  0  0  0  0
 14 16  1  0  0  0  0
 16 17  1  0  0  0  0
 11 17  1  0  0  0  0
 17 18  2  0  0  0  0
 13 19  1  0  0  0  0
 19 20  1  0  0  0  0
 19 21  1  0  0  0  0
 19 22  1  0  0  0  0
M  END
>  <Catalog ID>
Z2925653880

>  <Plate_ID>
2026983-X50-03

>  <Well>
A11

>  <V, µL>
50

>  <Conc, mM>
10

>  <Formula>
C15H24N4O3

>  <MW>
308.3761

>  <Purity>
100

>  <PO>
5A-64168

>  <MW_salt>
0

>  <Stereochem.data>
Racemic or presumed racemic or meso

>  <Geometric.isomer>
None

>  <Chemical name>
N-[(1-tert-butyl-2,4-dioxo-1,2,3,4-tetrahydropyrimidin-5-yl)methyl]-2-methylpyrrolidine-1-carboxamide

>  <ClogP>
0,324

>  <logS>
-2,24

>  <HBD>
2

>  <HBA>
3

>  <TPSA>
81,75

>  <RotBonds>
3

$$$$

  Mrv1925 04172511352D          

 25 28  0  0  0  0            999 V2000
    2.5645    2.4750    0.0000 C   0  0  0  0  0  0  0  0  0  0  0  0
    3.2789    2.0625    0.0000 N   0  0  0  0  0  0  0  0  0  0  0  0
    3.9934    2.4750    0.0000 C   0  0  0  0  0  0  0  0  0  0  0  0
    3.9934    3.3000    0.0000 C   0  0  0  0  0  0  0  0  0  0  0  0
    3.2789    3.7125    0.0000 O   0  0  0  0  0  0  0  0  0  0  0  0
    4.7079    3.7125    0.0000 N   0  0  0  0  0  0  0  0  0  0  0  0
    4.7079    4.5375    0.0000 C   0  0  0  0  0  0  0  0  0  0  0  0
    4.2954    5.2520    0.0000 C   0  0  0  0  0  0  0  0  0  0  0  0
    5.1204    5.2520    0.0000 C   0  0  0  0  0  0  0  0  0  0  0  0
    3.2789    1.2375    0.0000 C   0  0  0  0  0  0  0  0  0  0  0  0
    3.9934    0.8250    0.0000 N   0  0  0  0  0  0  0  0  0  0  0  0
    3.9934    0.0000    0.0000 C   0  0  0  0  0  0  0  0  0  0  0  0
    3.2789   -0.4125    0.0000 N   0  0  0  0  0  0  0  0  0  0  0  0
    2.5645    0.0000    0.0000 C   0  0  0  0  0  0  0  0  0  0  0  0
    2.5645    0.8250    0.0000 C   0  0  0  0  0  0  0  0  0  0  0  0
    1.7798    1.0799    0.0000 N   0  0  0  0  0  0  0  0  0  0  0  0
    1.2949    0.4125    0.0000 C   0  0  0  0  0  0  0  0  0  0  0  0
    1.7798   -0.2549    0.0000 N   0  0  0  0  0  0  0  0  0  0  0  0
    1.5249   -1.0396    0.0000 C   0  0  0  0  0  0  0  0  0  0  0  0
    2.0769   -1.6527    0.0000 C   0  0  0  0  0  0  0  0  0  0  0  0
    1.4638   -2.2047    0.0000 C   0  0  0  0  0  0  0  0  0  0  0  0
    1.6354   -3.0117    0.0000 O   0  0  0  0  0  0  0  0  0  0  0  0
    2.6900   -1.1006    0.0000 C   0  0  0  0  0  0  0  0  0  0  0  0
    3.2421   -1.7137    0.0000 O   0  0  0  0  0  0  0  0  0  0  0  0
    2.6290   -2.2657    0.0000 C   0  0  0  0  0  0  0  0  0  0  0  0
  1  2  1  0  0  0  0
  2  3  1  0  0  0  0
  3  4  1  0  0  0  0
  4  5  2  0  0  0  0
  4  6  1  0  0  0  0
  6  7  1  0  0  0  0
  7  8  1  0  0  0  0
  8  9  1  0  0  0  0
  7  9  1  0  0  0  0
  2 10  1  0  0  0  0
 10 11  1  0  0  0  0
 11 12  2  0  0  0  0
 12 13  1  0  0  0  0
 13 14  2  0  0  0  0
 14 15  1  0  0  0  0
 10 15  2  0  0  0  0
 15 16  1  0  0  0  0
 16 17  2  0  0  0  0
 17 18  1  0  0  0  0
 14 18  1  0  0  0  0
 18 19  1  0  0  0  0
 19 20  1  0  0  0  0
 20 21  1  0  0  0  0
 21 22  1  0  0  0  0
 20 23  1  0  0  0  0
 23 24  1  0  0  0  0
 24 25  1  0  0  0  0
 20 25  1  0  0  0  0
M  END
>  <Catalog ID>
Z2760934018

>  <Plate_ID>
2026983-X50-03

>  <Well>
B11

>  <V, µL>
50

>  <Conc, mM>
10

>  <Formula>
C16H22N6O3

>  <MW>
346.3843

>  <Purity>
100

>  <PO>
5A-64168

>  <MW_salt>
0

>  <Stereochem.data>
Achiral

>  <Geometric.isomer>
None

>  <Chemical name>
N-cyclopropyl-2-[(9-{[3-(hydroxymethyl)oxetan-3-yl]methyl}-9H-purin-6-yl)(methyl)amino]acetamide

>  <ClogP>
-1,934

>  <logS>
-1,984

>  <HBD>
2

>  <HBA>
7

>  <TPSA>
105,4

>  <RotBonds>
7

$$$$

  Mrv1925 04172511352D          

 30 33  0  0  0  0            999 V2000
   -2.7512   -2.5366    0.0000 O   0  0  0  0  0  0  0  0  0  0  0  0
   -2.7512   -1.7116    0.0000 C   0  0  0  0  0  0  0  0  0  0  0  0
   -2.0367   -1.2991    0.0000 C   0  0  0  0  0  0  0  0  0  0  0  0
   -1.3222   -1.7116    0.0000 N   0  0  0  0  0  0  0  0  0  0  0  0
   -0.6078   -1.2991    0.0000 C   0  0  0  0  0  0  0  0  0  0  0  0
   -0.6078   -0.4741    0.0000 O   0  0  0  0  0  0  0  0  0  0  0  0
    0.1067   -1.7116    0.0000 C   0  0  0  0  0  0  0  0  0  0  0  0
    0.8212   -1.2991    0.0000 F   0  0  0  0  0  0  0  0  0  0  0  0
    0.1067   -2.5366    0.0000 C   0  0  0  0  0  0  0  0  0  0  0  0
   -0.6078   -2.9491    0.0000 N   0  0  0  0  0  0  0  0  0  0  0  0
   -1.3222   -2.5366    0.0000 C   0  0  0  0  0  0  0  0  0  0  0  0
   -2.0367   -2.9491    0.0000 O   0  0  0  0  0  0  0  0  0  0  0  0
   -0.6078   -3.7741    0.0000 C   0  0  0  0  0  0  0  0  0  0  0  0
    0.0597   -4.2590    0.0000 C   0  0  0  0  0  0  0  0  0  0  0  0
   -0.1953   -5.0437    0.0000 C   0  0  0  0  0  0  0  0  0  0  0  0
   -1.0203   -5.0437    0.0000 C   0  0  0  0  0  0  0  0  0  0  0  0
   -1.2752   -4.2590    0.0000 O   0  0  0  0  0  0  0  0  0  0  0  0
   -3.4656   -1.2991    0.0000 N   0  0  0  0  0  0  0  0  0  0  0  0
   -4.1801   -1.7116    0.0000 C   0  0  0  0  0  0  0  0  0  0  0  0
   -4.8946   -1.2991    0.0000 C   0  0  0  0  0  0  0  0  0  0  0  0
   -4.8946   -0.4741    0.0000 N   0  0  0  0  0  0  0  0  0  0  0  0
   -4.1801   -0.0616    0.0000 C   0  0  0  0  0  0  0  0  0  0  0  0
   -3.4656   -0.4741    0.0000 C   0  0  0  0  0  0  0  0  0  0  0  0
   -5.6091   -0.0616    0.0000 C   0  0  0  0  0  0  0  0  0  0  0  0
   -6.3235   -0.4741    0.0000 O   0  0  0  0  0  0  0  0  0  0  0  0
   -5.6091    0.7634    0.0000 C   0  0  0  0  0  0  0  0  0  0  0  0
   -6.2765    1.2483    0.0000 C   0  0  0  0  0  0  0  0  0  0  0  0
   -6.0216    2.0329    0.0000 C   0  0  0  0  0  0  0  0  0  0  0  0
   -5.1966    2.0329    0.0000 C   0  0  0  0  0  0  0  0  0  0  0  0
   -4.9416    1.2483    0.0000 O   0  0  0  0  0  0  0  0  0  0  0  0
  1  2  2  0  0  0  0
  2  3  1  0  0  0  0
  3  4  1  0  0  0  0
  4  5  1  0  0  0  0
  5  6  2  0  0  0  0
  5  7  1  0  0  0  0
  7  8  1  0  0  0  0
  7  9  2  0  0  0  0
  9 10  1  0  0  0  0
 10 11  1  0  0  0  0
  4 11  1  0  0  0  0
 11 12  2  0  0  0  0
 10 13  1  0  0  0  0
 13 14  1  0  0  0  0
 14 15  1  0  0  0  0
 15 16  1  0  0  0  0
 16 17  1  0  0  0  0
 13 17  1  0  0  0  0
  2 18  1  0  0  0  0
 18 19  1  0  0  0  0
 19 20  1  0  0  0  0
 20 21  1  0  0  0  0
 21 22  1  0  0  0  0
 22 23  1  0  0  0  0
 18 23  1  0  0  0  0
 21 24  1  0  0  0  0
 24 25  2  0  0  0  0
 24 26  1  0  0  0  0
 26 27  2  0  0  0  0
 27 28  1  0  0  0  0
 28 29  2  0  0  0  0
 29 30  1  0  0  0  0
 26 30  1  0  0  0  0
M  END
>  <Catalog ID>
Z107295650

>  <Plate_ID>
2026983-X50-03

>  <Well>
C11

>  <V, µL>
50

>  <Conc, mM>
10

>  <Formula>
C19H21FN4O6

>  <MW>
420.3916

>  <Purity>
99

>  <PO>
5A-64168

>  <MW_salt>
0

>  <Stereochem.data>
Racemic or presumed racemic or meso

>  <Geometric.isomer>
None

>  <Chemical name>
5-fluoro-3-{2-[4-(furan-2-carbonyl)piperazin-1-yl]-2-oxoethyl}-1-(oxolan-2-yl)-1,2,3,4-tetrahydropyrimidine-2,4-dione

>  <ClogP>
1,082

>  <logS>
-2,61

>  <HBD>
0

>  <HBA>
5

>  <TPSA>
103,61

>  <RotBonds>
4

$$$$

  Mrv1925 04172511352D          

 23 25  0  0  0  0            999 V2000
   -2.0367   -0.4741    0.0000 O   0  0  0  0  0  0  0  0  0  0  0  0
   -2.0367   -1.2991    0.0000 C   0  0  0  0  0  0  0  0  0  0  0  0
   -1.3222   -1.7116    0.0000 C   0  0  0  0  0  0  0  0  0  0  0  0
   -0.6078   -1.2991    0.0000 F   0  0  0  0  0  0  0  0  0  0  0  0
   -1.3222   -2.5366    0.0000 C   0  0  0  0  0  0  0  0  0  0  0  0
   -2.0367   -2.9491    0.0000 N   0  0  0  0  0  0  0  0  0  0  0  0
   -2.7512   -2.5366    0.0000 C   0  0  0  0  0  0  0  0  0  0  0  0
   -3.4656   -2.9491    0.0000 O   0  0  0  0  0  0  0  0  0  0  0  0
   -2.7512   -1.7116    0.0000 N   0  0  0  0  0  0  0  0  0  0  0  0
   -3.4656   -1.2991    0.0000 C   0  0  0  0  0  0  0  0  0  0  0  0
   -3.4656   -0.4741    0.0000 C   0  0  0  0  0  0  0  0  0  0  0  0
   -2.7512   -0.0616    0.0000 O   0  0  0  0  0  0  0  0  0  0  0  0
   -4.1801   -0.0616    0.0000 C   0  0  0  0  0  0  0  0  0  0  0  0
   -4.8946   -0.4741    0.0000 C   0  0  0  0  0  0  0  0  0  0  0  0
   -5.6091   -0.0616    0.0000 C   0  0  0  0  0  0  0  0  0  0  0  0
   -5.6091    0.7634    0.0000 C   0  0  0  0  0  0  0  0  0  0  0  0
   -4.8946    1.1759    0.0000 C   0  0  0  0  0  0  0  0  0  0  0  0
   -4.1801    0.7634    0.0000 C   0  0  0  0  0  0  0  0  0  0  0  0
   -2.0367   -3.7741    0.0000 C   0  0  0  0  0  0  0  0  0  0  0  0
   -1.3693   -4.2590    0.0000 C   0  0  0  0  0  0  0  0  0  0  0  0
   -1.6242   -5.0437    0.0000 C   0  0  0  0  0  0  0  0  0  0  0  0
   -2.4492   -5.0437    0.0000 C   0  0  0  0  0  0  0  0  0  0  0  0
   -2.7041   -4.2590    0.0000 O   0  0  0  0  0  0  0  0  0  0  0  0
  1  2  2  0  0  0  0
  2  3  1  0  0  0  0
  3  4  1  0  0  0  0
  3  5  2  0  0  0  0
  5  6  1  0  0  0  0
  6  7  1  0  0  0  0
  7  8  2  0  0  0  0
  7  9  1  0  0  0  0
  2  9  1  0  0  0  0
  9 10  1  0  0  0  0
 10 11  1  0  0  0  0
 11 12  1  0  0  0  0
 11 13  1  0  0  0  0
 13 14  1  0  0  0  0
 14 15  1  0  0  0  0
 15 16  1  0  0  0  0
 16 17  1  0  0  0  0
 17 18  1  0  0  0  0
 13 18  1  0  0  0  0
  6 19  1  0  0  0  0
 19 20  1  0  0  0  0
 20 21  1  0  0  0  0
 21 22  1  0  0  0  0
 22 23  1  0  0  0  0
 19 23  1  0  0  0  0
M  END
>  <Catalog ID>
Z1828661297

>  <Plate_ID>
2026983-X50-03

>  <Well>
D11

>  <V, µL>
50

>  <Conc, mM>
10

>  <Formula>
C16H23FN2O4

>  <MW>
326.3632

>  <Purity>
90

>  <PO>
5A-64168

>  <MW_salt>
0

>  <Stereochem.data>
Diastereomeric mixture

>  <Geometric.isomer>
None

>  <Chemical name>
3-(2-cyclohexyl-2-hydroxyethyl)-5-fluoro-1-(oxolan-2-yl)-1,2,3,4-tetrahydropyrimidine-2,4-dione

>  <ClogP>
2,703

>  <logS>
-2,861

>  <HBD>
1

>  <HBA>
4

>  <TPSA>
70,08

>  <RotBonds>
4

$$$$

  Mrv1925 04172511352D          

 20 22  0  0  1  0            999 V2000
    3.2789    2.0625    0.0000 N   0  0  0  0  0  0  0  0  0  0  0  0
    3.2789    1.2375    0.0000 C   0  0  0  0  0  0  0  0  0  0  0  0
    3.9934    0.8250    0.0000 N   0  0  0  0  0  0  0  0  0  0  0  0
    3.9934    0.0000    0.0000 C   0  0  0  0  0  0  0  0  0  0  0  0
    4.7079   -0.4125    0.0000 Cl  0  0  0  0  0  0  0  0  0  0  0  0
    3.2789   -0.4125    0.0000 N   0  0  0  0  0  0  0  0  0  0  0  0
    2.5645    0.0000    0.0000 C   0  0  0  0  0  0  0  0  0  0  0  0
    2.5645    0.8250    0.0000 C   0  0  0  0  0  0  0  0  0  0  0  0
    1.7798    1.0799    0.0000 N   0  0  0  0  0  0  0  0  0  0  0  0
    1.2949    0.4125    0.0000 C   0  0  0  0  0  0  0  0  0  0  0  0
    1.7798   -0.2549    0.0000 N   0  0  0  0  0  0  0  0  0  0  0  0
    1.5249   -1.0396    0.0000 C   0  0  2  0  0  0  0  0  0  0  0  0
    2.0098   -1.7070    0.0000 O   0  0  0  0  0  0  0  0  0  0  0  0
    1.5249   -2.3744    0.0000 C   0  0  2  0  0  0  0  0  0  0  0  0
    1.7798   -3.1591    0.0000 C   0  0  0  0  0  0  0  0  0  0  0  0
    2.5868   -3.3306    0.0000 O   0  0  0  0  0  0  0  0  0  0  0  0
    0.7403   -2.1195    0.0000 C   0  0  1  0  0  0  0  0  0  0  0  0
    0.0728   -2.6044    0.0000 O   0  0  0  0  0  0  0  0  0  0  0  0
    0.7403   -1.2945    0.0000 C   0  0  2  0  0  0  0  0  0  0  0  0
    0.0728   -0.8096    0.0000 F   0  0  0  0  0  0  0  0  0  0  0  0
  1  2  1  0  0  0  0
  2  3  1  0  0  0  0
  3  4  2  0  0  0  0
  4  5  1  0  0  0  0
  4  6  1  0  0  0  0
  6  7  2  0  0  0  0
  7  8  1  0  0  0  0
  2  8  2  0  0  0  0
  8  9  1  0  0  0  0
  9 10  2  0  0  0  0
 10 11  1  0  0  0  0
  7 11  1  0  0  0  0
 12 11  1  6  0  0  0
 12 13  1  0  0  0  0
 14 13  1  0  0  0  0
 14 15  1  6  0  0  0
 15 16  1  0  0  0  0
 17 14  1  0  0  0  0
 17 18  1  1  0  0  0
 17 19  1  0  0  0  0
 19 12  1  0  0  0  0
 19 20  1  6  0  0  0
M  END
>  <Catalog ID>
Z1551900487

>  <Plate_ID>
2026983-X50-03

>  <Well>
E11

>  <V, µL>
50

>  <Conc, mM>
10

>  <Formula>
C10H11ClFN5O3

>  <MW>
303.6774

>  <Purity>
100

>  <PO>
5A-64168

>  <MW_salt>
0

>  <Stereochem.data>
Single known enantiomer

>  <Geometric.isomer>
None

>  <Chemical name>
(2R,3R,4S,5R)-5-(6-amino-2-chloro-9H-purin-9-yl)-4-fluoro-2-(hydroxymethyl)oxolan-3-ol

>  <ClogP>
-0,462

>  <logS>
-3,22

>  <HBD>
3

>  <HBA>
7

>  <TPSA>
119,31

>  <RotBonds>
2

$$$$

  Mrv1925 04172511352D          

 15 16  0  0  1  0            999 V2000
    0.7145    6.7661    0.0000 N   0  0  0  0  0  0  0  0  0  0  0  0
    0.7145    5.9411    0.0000 C   0  0  0  0  0  0  0  0  0  0  0  0
    1.4289    5.5286    0.0000 C   0  0  0  0  0  0  0  0  0  0  0  0
    1.4289    4.7036    0.0000 C   0  0  0  0  0  0  0  0  0  0  0  0
    0.7145    4.2911    0.0000 N   0  0  0  0  0  0  0  0  0  0  0  0
    0.0000    4.7036    0.0000 C   0  0  0  0  0  0  0  0  0  0  0  0
   -0.7145    4.2911    0.0000 O   0  0  0  0  0  0  0  0  0  0  0  0
    0.0000    5.5286    0.0000 N   0  0  0  0  0  0  0  0  0  0  0  0
    0.7145    3.4661    0.0000 C   0  0  1  0  0  0  0  0  0  0  0  0
    1.3819    2.9812    0.0000 C   0  0  0  0  0  0  0  0  0  0  0  0
    1.1270    2.1965    0.0000 C   0  0  0  0  0  0  0  0  0  0  0  0
    0.3020    2.1965    0.0000 C   0  0  1  0  0  0  0  0  0  0  0  0
   -0.1830    1.5291    0.0000 C   0  0  0  0  0  0  0  0  0  0  0  0
    0.1526    0.7754    0.0000 O   0  0  0  0  0  0  0  0  0  0  0  0
    0.0470    2.9812    0.0000 O   0  0  0  0  0  0  0  0  0  0  0  0
  1  2  1  0  0  0  0
  2  3  1  0  0  0  0
  3  4  2  0  0  0  0
  4  5  1  0  0  0  0
  5  6  1  0  0  0  0
  6  7  2  0  0  0  0
  6  8  1  0  0  0  0
  2  8  2  0  0  0  0
  9  5  1  1  0  0  0
  9 10  1  0  0  0  0
 10 11  1  0  0  0  0
 12 11  1  0  0  0  0
 12 13  1  1  0  0  0
 13 14  1  0  0  0  0
 12 15  1  0  0  0  0
  9 15  1  0  0  0  0
M  END
>  <Catalog ID>
Z1550648753

>  <Plate_ID>
2026983-X50-03

>  <Well>
F11

>  <V, µL>
50

>  <Conc, mM>
10

>  <Formula>
C9H13N3O3

>  <MW>
211.2178

>  <Purity>
100

>  <PO>
5A-64168

>  <MW_salt>
0

>  <Stereochem.data>
Single known enantiomer

>  <Geometric.isomer>
None

>  <Chemical name>
4-amino-1-[(2R,5S)-5-(hydroxymethyl)oxolan-2-yl]-1,2-dihydropyrimidin-2-one

>  <ClogP>
-1,247

>  <logS>
-0,63

>  <HBD>
2

>  <HBA>
5

>  <TPSA>
88,15

>  <RotBonds>
2

$$$$

  Mrv1925 04172511352D          

 17 18  0  0  1  0            999 V2000
    1.9709    0.2323    0.0000 N   0  0  0  0  0  0  0  0  0  0  0  0
    1.2564   -0.1802    0.0000 C   0  0  0  0  0  0  0  0  0  0  0  0
    0.5420    0.2323    0.0000 O   0  0  0  0  0  0  0  0  0  0  0  0
    1.2564   -1.0052    0.0000 C   0  0  0  0  0  0  0  0  0  0  0  0
    1.9239   -1.4901    0.0000 N   0  0  0  0  0  0  0  0  0  0  0  0
    1.6689   -2.2748    0.0000 C   0  0  0  0  0  0  0  0  0  0  0  0
    0.8439   -2.2748    0.0000 N   0  0  0  0  0  0  0  0  0  0  0  0
    0.5890   -1.4901    0.0000 N   0  0  0  0  0  0  0  0  0  0  0  0
    0.3590   -2.9422    0.0000 C   0  0  2  0  0  0  0  0  0  0  0  0
    0.6139   -3.7268    0.0000 O   0  0  0  0  0  0  0  0  0  0  0  0
   -0.0535   -4.2117    0.0000 C   0  0  2  0  0  0  0  0  0  0  0  0
   -0.0535   -5.0367    0.0000 C   0  0  0  0  0  0  0  0  0  0  0  0
    0.6610   -5.4492    0.0000 O   0  0  0  0  0  0  0  0  0  0  0  0
   -0.7209   -3.7268    0.0000 C   0  0  1  0  0  0  0  0  0  0  0  0
   -1.5056   -3.9818    0.0000 O   0  0  0  0  0  0  0  0  0  0  0  0
   -0.4660   -2.9422    0.0000 C   0  0  1  0  0  0  0  0  0  0  0  0
   -0.9509   -2.2748    0.0000 O   0  0  0  0  0  0  0  0  0  0  0  0
  1  2  1  0  0  0  0
  2  3  2  0  0  0  0
  2  4  1  0  0  0  0
  4  5  1  0  0  0  0
  5  6  2  0  0  0  0
  6  7  1  0  0  0  0
  7  8  1  0  0  0  0
  4  8  2  0  0  0  0
  9  7  1  6  0  0  0
  9 10  1  0  0  0  0
 11 10  1  0  0  0  0
 11 12  1  6  0  0  0
 12 13  1  0  0  0  0
 14 11  1  0  0  0  0
 14 15  1  1  0  0  0
 14 16  1  0  0  0  0
 16  9  1  0  0  0  0
 16 17  1  1  0  0  0
M  END
>  <Catalog ID>
Z594284196

>  <Plate_ID>
2026983-X50-03

>  <Well>
G11

>  <V, µL>
50

>  <Conc, mM>
10

>  <Formula>
C8H12N4O5

>  <MW>
244.2047

>  <Purity>
91

>  <PO>
5A-64168

>  <MW_salt>
0

>  <Stereochem.data>
Single known enantiomer

>  <Geometric.isomer>
None

>  <Chemical name>
1-[(2R,3R,4S,5R)-3,4-dihydroxy-5-(hydroxymethyl)oxolan-2-yl]-1H-1,2,4-triazole-3-carboxamide

>  <ClogP>
-2,849

>  <logS>
0,22

>  <HBD>
4

>  <HBA>
7

>  <TPSA>
143,72

>  <RotBonds>
3

$$$$

  Mrv1925 04172511352D          

 19 21  0  0  1  0            999 V2000
   -0.8004    3.4836    0.0000 O   0  0  0  0  0  0  0  0  0  0  0  0
   -0.2483    2.8705    0.0000 C   0  0  0  0  0  0  0  0  0  0  0  0
   -0.5033    2.0859    0.0000 C   0  0  1  0  0  0  0  0  0  0  0  0
   -0.0184    1.4184    0.0000 O   0  0  0  0  0  0  0  0  0  0  0  0
   -0.5033    0.7510    0.0000 C   0  0  2  0  0  0  0  0  0  0  0  0
   -1.2879    1.0059    0.0000 C   0  0  0  0  0  0  0  0  0  0  0  0
   -1.2879    1.8309    0.0000 C   0  0  2  0  0  0  0  0  0  0  0  0
   -1.9553    2.3158    0.0000 O   0  0  0  0  0  0  0  0  0  0  0  0
   -0.2483   -0.0336    0.0000 N   0  0  0  0  0  0  0  0  0  0  0  0
   -0.7333   -0.7011    0.0000 C   0  0  0  0  0  0  0  0  0  0  0  0
   -0.2483   -1.3685    0.0000 N   0  0  0  0  0  0  0  0  0  0  0  0
    0.5363   -1.1136    0.0000 C   0  0  0  0  0  0  0  0  0  0  0  0
    0.5363   -0.2886    0.0000 C   0  0  0  0  0  0  0  0  0  0  0  0
    1.1813    0.2258    0.0000 N   0  0  0  0  0  0  0  0  0  0  0  0
    1.9856    0.0422    0.0000 C   0  0  0  0  0  0  0  0  0  0  0  0
    2.3436   -0.7011    0.0000 N   0  0  0  0  0  0  0  0  0  0  0  0
    1.9856   -1.4444    0.0000 C   0  0  0  0  0  0  0  0  0  0  0  0
    1.1813   -1.6280    0.0000 C   0  0  1  0  0  0  0  0  0  0  0  0
    0.9977   -2.4323    0.0000 O   0  0  0  0  0  0  0  0  0  0  0  0
  1  2  1  0  0  0  0
  3  2  1  1  0  0  0
  3  4  1  0  0  0  0
  5  4  1  0  0  0  0
  5  6  1  0  0  0  0
  7  6  1  0  0  0  0
  3  7  1  0  0  0  0
  7  8  1  6  0  0  0
  5  9  1  1  0  0  0
  9 10  1  0  0  0  0
 10 11  2  0  0  0  0
 11 12  1  0  0  0  0
 12 13  2  0  0  0  0
  9 13  1  0  0  0  0
 13 14  1  0  0  0  0
 14 15  2  0  0  0  0
 15 16  1  0  0  0  0
 16 17  1  0  0  0  0
 18 17  1  0  0  0  0
 18 12  1  0  0  0  0
 18 19  1  1  0  0  0
M  END
>  <Catalog ID>
Z2204459563

>  <Plate_ID>
2026983-X50-03

>  <Well>
H11

>  <V, µL>
50

>  <Conc, mM>
10

>  <Formula>
C11H16N4O4

>  <MW>
268.2691

>  <Purity>
95

>  <PO>
5A-64168

>  <MW_salt>
0

>  <Stereochem.data>
Single known enantiomer

>  <Geometric.isomer>
None

>  <Chemical name>
(8R)-3-[(2R,4S,5R)-4-hydroxy-5-(hydroxymethyl)oxolan-2-yl]-3H,6H,7H,8H-imidazo[4,5-d][1,3]diazepin-8-ol

>  <ClogP>
-2,546

>  <logS>
-0,73

>  <HBD>
4

>  <HBA>
7

>  <TPSA>
112,13

>  <RotBonds>
2

$$$$

  Mrv1925 04172511352D          

 29 32  0  0  0  0            999 V2000
    1.8500    6.1875    0.0000 C   0  0  0  0  0  0  0  0  0  0  0  0
    2.5645    5.7750    0.0000 C   0  0  0  0  0  0  0  0  0  0  0  0
    2.5645    4.9500    0.0000 N   0  0  0  0  0  0  0  0  0  0  0  0
    3.2789    4.5375    0.0000 C   0  0  0  0  0  0  0  0  0  0  0  0
    3.9934    4.9500    0.0000 O   0  0  0  0  0  0  0  0  0  0  0  0
    3.2789    3.7125    0.0000 C   0  0  0  0  0  0  0  0  0  0  0  0
    3.9934    3.3000    0.0000 C   0  0  0  0  0  0  0  0  0  0  0  0
    3.9934    2.4750    0.0000 C   0  0  0  0  0  0  0  0  0  0  0  0
    3.2789    2.0625    0.0000 N   0  0  0  0  0  0  0  0  0  0  0  0
    2.5645    2.4750    0.0000 C   0  0  0  0  0  0  0  0  0  0  0  0
    2.5645    3.3000    0.0000 C   0  0  0  0  0  0  0  0  0  0  0  0
    3.2789    1.2375    0.0000 C   0  0  0  0  0  0  0  0  0  0  0  0
    3.9934    0.8250    0.0000 N   0  0  0  0  0  0  0  0  0  0  0  0
    3.9934    0.0000    0.0000 C   0  0  0  0  0  0  0  0  0  0  0  0
    3.2789   -0.4125    0.0000 N   0  0  0  0  0  0  0  0  0  0  0  0
    2.5645    0.0000    0.0000 C   0  0  0  0  0  0  0  0  0  0  0  0
    2.5645    0.8250    0.0000 C   0  0  0  0  0  0  0  0  0  0  0  0
    1.7798    1.0799    0.0000 N   0  0  0  0  0  0  0  0  0  0  0  0
    1.2949    0.4125    0.0000 C   0  0  0  0  0  0  0  0  0  0  0  0
    1.7798   -0.2549    0.0000 N   0  0  0  0  0  0  0  0  0  0  0  0
    1.5249   -1.0396    0.0000 C   0  0  0  0  0  0  0  0  0  0  0  0
    2.0769   -1.6527    0.0000 C   0  0  0  0  0  0  0  0  0  0  0  0
    2.8839   -1.4811    0.0000 C   0  0  0  0  0  0  0  0  0  0  0  0
    3.4359   -2.0942    0.0000 O   0  0  0  0  0  0  0  0  0  0  0  0
    1.8220   -2.4373    0.0000 C   0  0  0  0  0  0  0  0  0  0  0  0
    2.3069   -3.1047    0.0000 C   0  0  0  0  0  0  0  0  0  0  0  0
    1.8220   -3.7722    0.0000 C   0  0  0  0  0  0  0  0  0  0  0  0
    1.0374   -3.5172    0.0000 O   0  0  0  0  0  0  0  0  0  0  0  0
    1.0374   -2.6922    0.0000 C   0  0  0  0  0  0  0  0  0  0  0  0
  1  2  1  0  0  0  0
  2  3  1  0  0  0  0
  3  4  1  0  0  0  0
  4  5  2  0  0  0  0
  4  6  1  0  0  0  0
  6  7  1  0  0  0  0
  7  8  1  0  0  0  0
  8  9  1  0  0  0  0
  9 10  1  0  0  0  0
 10 11  1  0  0  0  0
  6 11  1  0  0  0  0
  9 12  1  0  0  0  0
 12 13  1  0  0  0  0
 13 14  2  0  0  0  0
 14 15  1  0  0  0  0
 15 16  2  0  0  0  0
 16 17  1  0  0  0  0
 12 17  2  0  0  0  0
 17 18  1  0  0  0  0
 18 19  2  0  0  0  0
 19 20  1  0  0  0  0
 16 20  1  0  0  0  0
 20 21  1  0  0  0  0
 21 22  1  0  0  0  0
 22 23  1  0  0  0  0
 23 24  1  0  0  0  0
 22 25  1  0  0  0  0
 25 26  1  0  0  0  0
 26 27  1  0  0  0  0
 27 28  1  0  0  0  0
 28 29  1  0  0  0  0
 25 29  1  0  0  0  0
M  END
>  <Catalog ID>
Z2760944077

>  <Plate_ID>
2026983-X50-04

>  <Well>
A02

>  <V, µL>
50

>  <Conc, mM>
10

>  <Formula>
C20H30N6O3

>  <MW>
402.4906

>  <Purity>
98.28

>  <PO>
5A-64168

>  <MW_salt>
0

>  <Stereochem.data>
Diastereomeric mixture

>  <Geometric.isomer>
None

>  <Chemical name>
N-ethyl-1-{9-[3-hydroxy-2-(oxolan-3-yl)propyl]-9H-purin-6-yl}piperidine-4-carboxamide

>  <ClogP>
-1,544

>  <logS>
-2,58

>  <HBD>
2

>  <HBA>
7

>  <TPSA>
105,4

>  <RotBonds>
7

$$$$

  Mrv1925 04172511352D          

 29 32  0  0  0  0            999 V2000
    1.8500    7.0125    0.0000 C   0  0  0  0  0  0  0  0  0  0  0  0
    1.8500    6.1875    0.0000 C   0  0  0  0  0  0  0  0  0  0  0  0
    1.1355    5.7750    0.0000 C   0  0  0  0  0  0  0  0  0  0  0  0
    2.5645    5.7750    0.0000 C   0  0  0  0  0  0  0  0  0  0  0  0
    2.5645    4.9500    0.0000 C   0  0  0  0  0  0  0  0  0  0  0  0
    3.2789    4.5375    0.0000 O   0  0  0  0  0  0  0  0  0  0  0  0
    3.2789    3.7125    0.0000 C   0  0  0  0  0  0  0  0  0  0  0  0
    3.9934    3.3000    0.0000 C   0  0  0  0  0  0  0  0  0  0  0  0
    3.9934    2.4750    0.0000 C   0  0  0  0  0  0  0  0  0  0  0  0
    3.2789    2.0625    0.0000 N   0  0  0  0  0  0  0  0  0  0  0  0
    2.5645    2.4750    0.0000 C   0  0  0  0  0  0  0  0  0  0  0  0
    2.5645    3.3000    0.0000 C   0  0  0  0  0  0  0  0  0  0  0  0
    3.2789    1.2375    0.0000 C   0  0  0  0  0  0  0  0  0  0  0  0
    3.9934    0.8250    0.0000 N   0  0  0  0  0  0  0  0  0  0  0  0
    3.9934    0.0000    0.0000 C   0  0  0  0  0  0  0  0  0  0  0  0
    3.2789   -0.4125    0.0000 N   0  0  0  0  0  0  0  0  0  0  0  0
    2.5645    0.0000    0.0000 C   0  0  0  0  0  0  0  0  0  0  0  0
    2.5645    0.8250    0.0000 C   0  0  0  0  0  0  0  0  0  0  0  0
    1.7798    1.0799    0.0000 N   0  0  0  0  0  0  0  0  0  0  0  0
    1.2949    0.4125    0.0000 C   0  0  0  0  0  0  0  0  0  0  0  0
    1.7798   -0.2549    0.0000 N   0  0  0  0  0  0  0  0  0  0  0  0
    1.5249   -1.0396    0.0000 C   0  0  0  0  0  0  0  0  0  0  0  0
    0.7179   -1.2111    0.0000 C   0  0  0  0  0  0  0  0  0  0  0  0
    0.6891   -0.3866    0.0000 O   0  0  0  0  0  0  0  0  0  0  0  0
    1.0270   -1.9760    0.0000 C   0  0  0  0  0  0  0  0  0  0  0  0
    0.5191   -2.6261    0.0000 C   0  0  0  0  0  0  0  0  0  0  0  0
   -0.2979   -2.5113    0.0000 O   0  0  0  0  0  0  0  0  0  0  0  0
   -0.6070   -1.7464    0.0000 C   0  0  0  0  0  0  0  0  0  0  0  0
   -0.0990   -1.0963    0.0000 C   0  0  0  0  0  0  0  0  0  0  0  0
  1  2  1  0  0  0  0
  2  3  1  0  0  0  0
  2  4  1  0  0  0  0
  4  5  1  0  0  0  0
  5  6  1  0  0  0  0
  6  7  1  0  0  0  0
  7  8  1  0  0  0  0
  8  9  1  0  0  0  0
  9 10  1  0  0  0  0
 10 11  1  0  0  0  0
 11 12  1  0  0  0  0
  7 12  1  0  0  0  0
 10 13  1  0  0  0  0
 13 14  1  0  0  0  0
 14 15  2  0  0  0  0
 15 16  1  0  0  0  0
 16 17  2  0  0  0  0
 17 18  1  0  0  0  0
 13 18  2  0  0  0  0
 18 19  1  0  0  0  0
 19 20  2  0  0  0  0
 20 21  1  0  0  0  0
 17 21  1  0  0  0  0
 21 22  1  0  0  0  0
 22 23  1  0  0  0  0
 23 24  1  0  0  0  0
 23 25  1  0  0  0  0
 25 26  1  0  0  0  0
 26 27  1  0  0  0  0
 27 28  1  0  0  0  0
 28 29  1  0  0  0  0
 23 29  1  0  0  0  0
M  END
>  <Catalog ID>
Z2760942055

>  <Plate_ID>
2026983-X50-04

>  <Well>
B02

>  <V, µL>
50

>  <Conc, mM>
10

>  <Formula>
C21H33N5O3

>  <MW>
403.5184

>  <Purity>
96.43

>  <PO>
5A-64168

>  <MW_salt>
0

>  <Stereochem.data>
Achiral

>  <Geometric.isomer>
None

>  <Chemical name>
4-({6-[4-(3-methylbutoxy)piperidin-1-yl]-9H-purin-9-yl}methyl)oxan-4-ol

>  <ClogP>
0,423

>  <logS>
-4,287

>  <HBD>
1

>  <HBA>
7

>  <TPSA>
85,53

>  <RotBonds>
7

$$$$

  Mrv1925 04172511352D          

 27 29  0  0  0  0            999 V2000
    5.0013   -0.4125    0.0000 C   0  0  0  0  0  0  0  0  0  0  0  0
    5.0013   -1.2375    0.0000 C   0  0  0  0  0  0  0  0  0  0  0  0
    5.7158   -1.6500    0.0000 C   0  0  0  0  0  0  0  0  0  0  0  0
    5.7158   -2.4750    0.0000 C   0  0  0  0  0  0  0  0  0  0  0  0
    5.0013   -2.8875    0.0000 N   0  0  0  0  0  0  0  0  0  0  0  0
    4.2868   -2.4750    0.0000 C   0  0  0  0  0  0  0  0  0  0  0  0
    4.2868   -1.6500    0.0000 C   0  0  0  0  0  0  0  0  0  0  0  0
    5.0013   -3.7125    0.0000 C   0  0  0  0  0  0  0  0  0  0  0  0
    5.7158   -4.1250    0.0000 O   0  0  0  0  0  0  0  0  0  0  0  0
    4.2868   -4.1250    0.0000 C   0  0  0  0  0  0  0  0  0  0  0  0
    4.2868   -4.9500    0.0000 C   0  0  0  0  0  0  0  0  0  0  0  0
    3.5724   -5.3625    0.0000 C   0  0  0  0  0  0  0  0  0  0  0  0
    2.8579   -4.9500    0.0000 N   0  0  0  0  0  0  0  0  0  0  0  0
    2.8579   -4.1250    0.0000 C   0  0  0  0  0  0  0  0  0  0  0  0
    3.5724   -3.7125    0.0000 C   0  0  0  0  0  0  0  0  0  0  0  0
    2.1434   -5.3625    0.0000 C   0  0  0  0  0  0  0  0  0  0  0  0
    2.1434   -6.1875    0.0000 O   0  0  0  0  0  0  0  0  0  0  0  0
    1.4289   -4.9500    0.0000 C   0  0  0  0  0  0  0  0  0  0  0  0
    0.7145   -5.3625    0.0000 C   0  0  0  0  0  0  0  0  0  0  0  0
   -0.0000   -4.9500    0.0000 N   0  0  0  0  0  0  0  0  0  0  0  0
   -0.7145   -5.3625    0.0000 C   0  0  0  0  0  0  0  0  0  0  0  0
    0.0000   -4.1250    0.0000 C   0  0  0  0  0  0  0  0  0  0  0  0
   -0.7145   -3.7125    0.0000 O   0  0  0  0  0  0  0  0  0  0  0  0
    0.7145   -3.7125    0.0000 N   0  0  0  0  0  0  0  0  0  0  0  0
    0.7145   -2.8875    0.0000 C   0  0  0  0  0  0  0  0  0  0  0  0
    1.4289   -4.1250    0.0000 C   0  0  0  0  0  0  0  0  0  0  0  0
    2.1434   -3.7125    0.0000 O   0  0  0  0  0  0  0  0  0  0  0  0
  1  2  1  0  0  0  0
  2  3  1  0  0  0  0
  3  4  1  0  0  0  0
  4  5  1  0  0  0  0
  5  6  1  0  0  0  0
  6  7  1  0  0  0  0
  2  7  1  0  0  0  0
  5  8  1  0  0  0  0
  8  9  2  0  0  0  0
  8 10  1  0  0  0  0
 10 11  1  0  0  0  0
 11 12  1  0  0  0  0
 12 13  1  0  0  0  0
 13 14  1  0  0  0  0
 14 15  1  0  0  0  0
 10 15  1  0  0  0  0
 13 16  1  0  0  0  0
 16 17  2  0  0  0  0
 16 18  1  0  0  0  0
 18 19  2  0  0  0  0
 19 20  1  0  0  0  0
 20 21  1  0  0  0  0
 20 22  1  0  0  0  0
 22 23  2  0  0  0  0
 22 24  1  0  0  0  0
 24 25  1  0  0  0  0
 24 26  1  0  0  0  0
 18 26  1  0  0  0  0
 26 27  2  0  0  0  0
M  END
>  <Catalog ID>
Z1220155161

>  <Plate_ID>
2026983-X50-04

>  <Well>
C02

>  <V, µL>
50

>  <Conc, mM>
10

>  <Formula>
C19H28N4O4

>  <MW>
376.45

>  <Purity>
97.72

>  <PO>
5A-64168

>  <MW_salt>
0

>  <Stereochem.data>
Achiral

>  <Geometric.isomer>
None

>  <Chemical name>
1,3-dimethyl-5-[4-(4-methylpiperidine-1-carbonyl)piperidine-1-carbonyl]-1,2,3,4-tetrahydropyrimidine-2,4-dione

>  <ClogP>
-0,827

>  <logS>
-2,157

>  <HBD>
0

>  <HBA>
4

>  <TPSA>
81,24

>  <RotBonds>
2

$$$$

  Mrv1925 04172511352D          

 29 32  0  0  0  0            999 V2000
    6.1368    4.5375    0.0000 C   0  0  0  0  0  0  0  0  0  0  0  0
    6.1368    3.7125    0.0000 C   0  0  0  0  0  0  0  0  0  0  0  0
    5.4223    3.3000    0.0000 N   0  0  0  0  0  0  0  0  0  0  0  0
    5.4223    2.4750    0.0000 C   0  0  0  0  0  0  0  0  0  0  0  0
    4.7079    2.0625    0.0000 C   0  0  0  0  0  0  0  0  0  0  0  0
    3.9934    2.4750    0.0000 C   0  0  0  0  0  0  0  0  0  0  0  0
    3.9934    3.3000    0.0000 C   0  0  0  0  0  0  0  0  0  0  0  0
    4.7079    3.7125    0.0000 C   0  0  0  0  0  0  0  0  0  0  0  0
    4.7079    4.5375    0.0000 C   0  0  0  0  0  0  0  0  0  0  0  0
    3.2789    2.0625    0.0000 N   0  0  0  0  0  0  0  0  0  0  0  0
    2.5645    2.4750    0.0000 C   0  0  0  0  0  0  0  0  0  0  0  0
    3.2789    1.2375    0.0000 C   0  0  0  0  0  0  0  0  0  0  0  0
    3.9934    0.8250    0.0000 N   0  0  0  0  0  0  0  0  0  0  0  0
    3.9934    0.0000    0.0000 C   0  0  0  0  0  0  0  0  0  0  0  0
    3.2789   -0.4125    0.0000 N   0  0  0  0  0  0  0  0  0  0  0  0
    2.5645    0.0000    0.0000 C   0  0  0  0  0  0  0  0  0  0  0  0
    2.5645    0.8250    0.0000 C   0  0  0  0  0  0  0  0  0  0  0  0
    1.7798    1.0799    0.0000 N   0  0  0  0  0  0  0  0  0  0  0  0
    1.2949    0.4125    0.0000 C   0  0  0  0  0  0  0  0  0  0  0  0
    1.7798   -0.2549    0.0000 N   0  0  0  0  0  0  0  0  0  0  0  0
    1.5249   -1.0396    0.0000 C   0  0  0  0  0  0  0  0  0  0  0  0
    2.0769   -1.6527    0.0000 C   0  0  0  0  0  0  0  0  0  0  0  0
    2.8839   -1.4811    0.0000 C   0  0  0  0  0  0  0  0  0  0  0  0
    3.4359   -2.0942    0.0000 O   0  0  0  0  0  0  0  0  0  0  0  0
    1.8220   -2.4373    0.0000 C   0  0  0  0  0  0  0  0  0  0  0  0
    2.3069   -3.1047    0.0000 C   0  0  0  0  0  0  0  0  0  0  0  0
    1.8220   -3.7722    0.0000 C   0  0  0  0  0  0  0  0  0  0  0  0
    1.0374   -3.5172    0.0000 O   0  0  0  0  0  0  0  0  0  0  0  0
    1.0374   -2.6922    0.0000 C   0  0  0  0  0  0  0  0  0  0  0  0
  1  2  1  0  0  0  0
  2  3  1  0  0  0  0
  3  4  1  0  0  0  0
  4  5  1  0  0  0  0
  5  6  1  0  0  0  0
  6  7  1  0  0  0  0
  7  8  1  0  0  0  0
  3  8  1  0  0  0  0
  8  9  1  0  0  0  0
  6 10  1  0  0  0  0
 10 11  1  0  0  0  0
 10 12  1  0  0  0  0
 12 13  1  0  0  0  0
 13 14  2  0  0  0  0
 14 15  1  0  0  0  0
 15 16  2  0  0  0  0
 16 17  1  0  0  0  0
 12 17  2  0  0  0  0
 17 18  1  0  0  0  0
 18 19  2  0  0  0  0
 19 20  1  0  0  0  0
 16 20  1  0  0  0  0
 20 21  1  0  0  0  0
 21 22  1  0  0  0  0
 22 23  1  0  0  0  0
 23 24  1  0  0  0  0
 22 25  1  0  0  0  0
 25 26  1  0  0  0  0
 26 27  1  0  0  0  0
 27 28  1  0  0  0  0
 28 29  1  0  0  0  0
 25 29  1  0  0  0  0
M  END
>  <Catalog ID>
Z2760949448

>  <Plate_ID>
2026983-X50-04

>  <Well>
D02

>  <V, µL>
50

>  <Conc, mM>
10

>  <Formula>
C21H34N6O2

>  <MW>
402.5337

>  <Purity>
95.7

>  <PO>
5A-64168

>  <MW_salt>
0

>  <Stereochem.data>
Diastereomeric mixture

>  <Geometric.isomer>
None

>  <Chemical name>
3-{6-[(1-ethyl-2-methylpiperidin-4-yl)(methyl)amino]-9H-purin-9-yl}-2-(oxolan-3-yl)propan-1-ol

>  <ClogP>
0,761

>  <logS>
-2,51

>  <HBD>
1

>  <HBA>
7

>  <TPSA>
79,54

>  <RotBonds>
7

$$$$

  Mrv1925 04172511352D          

 17 19  0  0  0  0            999 V2000
    2.2852    4.6374    0.0000 C   0  0  0  0  0  0  0  0  0  0  0  0
    2.9527    4.1525    0.0000 C   0  0  0  0  0  0  0  0  0  0  0  0
    2.8664    3.3320    0.0000 C   0  0  0  0  0  0  0  0  0  0  0  0
    2.0595    3.5036    0.0000 O   0  0  0  0  0  0  0  0  0  0  0  0
    3.6914    3.3320    0.0000 C   0  0  0  0  0  0  0  0  0  0  0  0
    3.9464    2.5474    0.0000 C   0  0  0  0  0  0  0  0  0  0  0  0
    3.2789    2.0625    0.0000 N   0  0  0  0  0  0  0  0  0  0  0  0
    2.6115    2.5474    0.0000 C   0  0  0  0  0  0  0  0  0  0  0  0
    3.2789    1.2375    0.0000 C   0  0  0  0  0  0  0  0  0  0  0  0
    3.9934    0.8250    0.0000 N   0  0  0  0  0  0  0  0  0  0  0  0
    3.9934    0.0000    0.0000 C   0  0  0  0  0  0  0  0  0  0  0  0
    3.2789   -0.4125    0.0000 N   0  0  0  0  0  0  0  0  0  0  0  0
    2.5645    0.0000    0.0000 C   0  0  0  0  0  0  0  0  0  0  0  0
    1.7798   -0.2549    0.0000 N   0  0  0  0  0  0  0  0  0  0  0  0
    1.2949    0.4125    0.0000 C   0  0  0  0  0  0  0  0  0  0  0  0
    1.7798    1.0799    0.0000 C   0  0  0  0  0  0  0  0  0  0  0  0
    2.5645    0.8250    0.0000 C   0  0  0  0  0  0  0  0  0  0  0  0
  1  2  1  0  0  0  0
  2  3  1  0  0  0  0
  3  4  1  0  0  0  0
  3  5  1  0  0  0  0
  5  6  1  0  0  0  0
  6  7  1  0  0  0  0
  7  8  1  0  0  0  0
  3  8  1  0  0  0  0
  7  9  1  0  0  0  0
  9 10  1  0  0  0  0
 10 11  2  0  0  0  0
 11 12  1  0  0  0  0
 12 13  2  0  0  0  0
 13 14  1  0  0  0  0
 14 15  1  0  0  0  0
 15 16  2  0  0  0  0
 16 17  1  0  0  0  0
  9 17  2  0  0  0  0
 13 17  1  0  0  0  0
M  END
>  <Catalog ID>
Z1744136164

>  <Plate_ID>
2026983-X50-04

>  <Well>
E02

>  <V, µL>
50

>  <Conc, mM>
10

>  <Formula>
C12H16N4O

>  <MW>
232.2816

>  <Purity>
100

>  <PO>
5A-64168

>  <MW_salt>
0

>  <Stereochem.data>
Racemic or presumed racemic or meso

>  <Geometric.isomer>
None

>  <Chemical name>
3-ethyl-1-{7H-pyrrolo[2,3-d]pyrimidin-4-yl}pyrrolidin-3-ol

>  <ClogP>
1,143

>  <logS>
-3,553

>  <HBD>
2

>  <HBA>
4

>  <TPSA>
65,04

>  <RotBonds>
2

$$$$

  Mrv1925 04172511352D          

 28 31  0  0  0  0            999 V2000
    0.8646   -3.5628    0.0000 C   0  0  0  0  0  0  0  0  0  0  0  0
    0.1544   -3.1429    0.0000 C   0  0  0  0  0  0  0  0  0  0  0  0
   -0.6027   -3.4705    0.0000 O   0  0  0  0  0  0  0  0  0  0  0  0
   -1.1483   -2.8517    0.0000 C   0  0  0  0  0  0  0  0  0  0  0  0
   -0.7283   -2.1416    0.0000 C   0  0  0  0  0  0  0  0  0  0  0  0
    0.0768   -2.3215    0.0000 C   0  0  0  0  0  0  0  0  0  0  0  0
    0.3481   -1.5424    0.0000 O   0  0  0  0  0  0  0  0  0  0  0  0
    0.8838   -2.1500    0.0000 C   0  0  0  0  0  0  0  0  0  0  0  0
    1.1387   -1.3654    0.0000 N   0  0  0  0  0  0  0  0  0  0  0  0
    0.6538   -0.6979    0.0000 C   0  0  0  0  0  0  0  0  0  0  0  0
    1.1387   -0.0305    0.0000 N   0  0  0  0  0  0  0  0  0  0  0  0
    1.9233   -0.2854    0.0000 C   0  0  0  0  0  0  0  0  0  0  0  0
    2.6378    0.1271    0.0000 C   0  0  0  0  0  0  0  0  0  0  0  0
    3.3523   -0.2854    0.0000 N   0  0  0  0  0  0  0  0  0  0  0  0
    3.3523   -1.1104    0.0000 C   0  0  0  0  0  0  0  0  0  0  0  0
    2.6378   -1.5229    0.0000 N   0  0  0  0  0  0  0  0  0  0  0  0
    1.9233   -1.1104    0.0000 C   0  0  0  0  0  0  0  0  0  0  0  0
    2.6378    0.9521    0.0000 N   0  0  0  0  0  0  0  0  0  0  0  0
    2.0545    1.5354    0.0000 C   0  0  0  0  0  0  0  0  0  0  0  0
    2.6378    2.1188    0.0000 C   0  0  0  0  0  0  0  0  0  0  0  0
    3.2212    1.5354    0.0000 C   0  0  0  0  0  0  0  0  0  0  0  0
    2.6378    2.9438    0.0000 O   0  0  0  0  0  0  0  0  0  0  0  0
    3.3523    3.3563    0.0000 C   0  0  0  0  0  0  0  0  0  0  0  0
    3.3523    4.1813    0.0000 C   0  0  0  0  0  0  0  0  0  0  0  0
    2.6378    4.5938    0.0000 O   0  0  0  0  0  0  0  0  0  0  0  0
    4.0668    4.5938    0.0000 N   0  0  0  0  0  0  0  0  0  0  0  0
    4.0668    5.4188    0.0000 C   0  0  0  0  0  0  0  0  0  0  0  0
    4.7812    4.1813    0.0000 C   0  0  0  0  0  0  0  0  0  0  0  0
  1  2  1  0  0  0  0
  2  3  1  0  0  0  0
  3  4  1  0  0  0  0
  4  5  1  0  0  0  0
  5  6  1  0  0  0  0
  2  6  1  0  0  0  0
  6  7  1  0  0  0  0
  6  8  1  0  0  0  0
  8  9  1  0  0  0  0
  9 10  1  0  0  0  0
 10 11  2  0  0  0  0
 11 12  1  0  0  0  0
 12 13  1  0  0  0  0
 13 14  2  0  0  0  0
 14 15  1  0  0  0  0
 15 16  2  0  0  0  0
 16 17  1  0  0  0  0
 12 17  2  0  0  0  0
  9 17  1  0  0  0  0
 13 18  1  0  0  0  0
 18 19  1  0  0  0  0
 19 20  1  0  0  0  0
 20 21  1  0  0  0  0
 18 21  1  0  0  0  0
 20 22  1  0  0  0  0
 22 23  1  0  0  0  0
 23 24  1  0  0  0  0
 24 25  2  0  0  0  0
 24 26  1  0  0  0  0
 26 27  1  0  0  0  0
 26 28  1  0  0  0  0
M  END
>  <Catalog ID>
Z2760952206

>  <Plate_ID>
2026983-X50-04

>  <Well>
F02

>  <V, µL>
50

>  <Conc, mM>
10

>  <Formula>
C18H26N6O4

>  <MW>
390.4368

>  <Purity>
95.52

>  <PO>
5A-64168

>  <MW_salt>
0

>  <Stereochem.data>
Diastereomeric mixture

>  <Geometric.isomer>
Unknown

>  <Chemical name>
2-[(1-{9-[(3-hydroxy-2-methyloxolan-3-yl)methyl]-9H-purin-6-yl}azetidin-3-yl)oxy]-N,N-dimethylacetamide

>  <ClogP>
-0,642

>  <logS>
-2,531

>  <HBD>
1

>  <HBA>
8

>  <TPSA>
105,84

>  <RotBonds>
6

$$$$

  Mrv1925 04172511352D          

 25 27  0  0  0  0            999 V2000
    2.1434   -1.2375    0.0000 O   0  0  0  0  0  0  0  0  0  0  0  0
    1.4289   -1.6500    0.0000 C   0  0  0  0  0  0  0  0  0  0  0  0
    1.4289   -2.4750    0.0000 C   0  0  0  0  0  0  0  0  0  0  0  0
    2.1434   -2.8875    0.0000 N   0  0  0  0  0  0  0  0  0  0  0  0
    2.8579   -2.4750    0.0000 C   0  0  0  0  0  0  0  0  0  0  0  0
    2.8579   -1.6500    0.0000 O   0  0  0  0  0  0  0  0  0  0  0  0
    3.5724   -2.8875    0.0000 C   0  0  0  0  0  0  0  0  0  0  0  0
    4.2868   -2.4750    0.0000 F   0  0  0  0  0  0  0  0  0  0  0  0
    3.5724   -3.7125    0.0000 C   0  0  0  0  0  0  0  0  0  0  0  0
    2.8579   -4.1250    0.0000 N   0  0  0  0  0  0  0  0  0  0  0  0
    2.1434   -3.7125    0.0000 C   0  0  0  0  0  0  0  0  0  0  0  0
    1.4289   -4.1250    0.0000 O   0  0  0  0  0  0  0  0  0  0  0  0
    2.8579   -4.9500    0.0000 C   0  0  0  0  0  0  0  0  0  0  0  0
    3.5253   -5.4349    0.0000 C   0  0  0  0  0  0  0  0  0  0  0  0
    3.2704   -6.2195    0.0000 C   0  0  0  0  0  0  0  0  0  0  0  0
    2.4454   -6.2195    0.0000 C   0  0  0  0  0  0  0  0  0  0  0  0
    2.1904   -5.4349    0.0000 O   0  0  0  0  0  0  0  0  0  0  0  0
    0.7145   -1.2375    0.0000 N   0  0  0  0  0  0  0  0  0  0  0  0
    0.7145   -0.4125    0.0000 C   0  0  0  0  0  0  0  0  0  0  0  0
    0.0000    0.0000    0.0000 C   0  0  0  0  0  0  0  0  0  0  0  0
    0.0000    0.8250    0.0000 C   0  0  0  0  0  0  0  0  0  0  0  0
    0.7145    1.2375    0.0000 C   0  0  0  0  0  0  0  0  0  0  0  0
    1.4289    0.8250    0.0000 C   0  0  0  0  0  0  0  0  0  0  0  0
    2.1434    1.2375    0.0000 I   0  0  0  0  0  0  0  0  0  0  0  0
    1.4289    0.0000    0.0000 C   0  0  0  0  0  0  0  0  0  0  0  0
  1  2  2  0  0  0  0
  2  3  1  0  0  0  0
  3  4  1  0  0  0  0
  4  5  1  0  0  0  0
  5  6  2  0  0  0  0
  5  7  1  0  0  0  0
  7  8  1  0  0  0  0
  7  9  2  0  0  0  0
  9 10  1  0  0  0  0
 10 11  1  0  0  0  0
  4 11  1  0  0  0  0
 11 12  2  0  0  0  0
 10 13  1  0  0  0  0
 13 14  1  0  0  0  0
 14 15  1  0  0  0  0
 15 16  1  0  0  0  0
 16 17  1  0  0  0  0
 13 17  1  0  0  0  0
  2 18  1  0  0  0  0
 18 19  1  0  0  0  0
 19 20  1  0  0  0  0
 20 21  2  0  0  0  0
 21 22  1  0  0  0  0
 22 23  2  0  0  0  0
 23 24  1  0  0  0  0
 23 25  1  0  0  0  0
 19 25  2  0  0  0  0
M  END
>  <Catalog ID>
Z94558629

>  <Plate_ID>
2026983-X50-04

>  <Well>
G02

>  <V, µL>
50

>  <Conc, mM>
10

>  <Formula>
C16H15FIN3O4

>  <MW>
459.2109

>  <Purity>
100

>  <PO>
5A-64168

>  <MW_salt>
0

>  <Stereochem.data>
Racemic or presumed racemic or meso

>  <Geometric.isomer>
None

>  <Chemical name>
2-[5-fluoro-2,6-dioxo-3-(oxolan-2-yl)-1,2,3,6-tetrahydropyrimidin-1-yl]-N-(3-iodophenyl)acetamide

>  <ClogP>
3,426

>  <logS>
-3,24

>  <HBD>
1

>  <HBA>
4

>  <TPSA>
78,95

>  <RotBonds>
4

$$$$

  Mrv1925 04172511352D          

 21 22  0  0  0  0            999 V2000
   -0.6941   -1.5205    0.0000 C   0  0  0  0  0  0  0  0  0  0  0  0
   -0.6941   -2.3455    0.0000 N   0  0  0  0  0  0  0  0  0  0  0  0
    0.0204   -2.7580    0.0000 C   0  0  0  0  0  0  0  0  0  0  0  0
    0.0204   -3.5830    0.0000 C   0  0  0  0  0  0  0  0  0  0  0  0
    0.7349   -3.9955    0.0000 C   0  0  0  0  0  0  0  0  0  0  0  0
    1.4493   -3.5830    0.0000 O   0  0  0  0  0  0  0  0  0  0  0  0
    0.7349   -4.8205    0.0000 N   0  0  0  0  0  0  0  0  0  0  0  0
    1.4493   -5.2330    0.0000 C   0  0  0  0  0  0  0  0  0  0  0  0
    2.1310   -4.7683    0.0000 C   0  0  0  0  0  0  0  0  0  0  0  0
    2.9193   -5.0114    0.0000 N   0  0  0  0  0  0  0  0  0  0  0  0
    3.4805   -4.4067    0.0000 C   0  0  0  0  0  0  0  0  0  0  0  0
    3.2207   -5.7794    0.0000 C   0  0  0  0  0  0  0  0  0  0  0  0
    2.8082   -6.4939    0.0000 C   0  0  0  0  0  0  0  0  0  0  0  0
    1.9925   -6.6168    0.0000 N   0  0  0  0  0  0  0  0  0  0  0  0
    1.7493   -7.4052    0.0000 C   0  0  0  0  0  0  0  0  0  0  0  0
    1.3877   -6.0557    0.0000 C   0  0  0  0  0  0  0  0  0  0  0  0
   -0.6941   -3.9955    0.0000 C   0  0  0  0  0  0  0  0  0  0  0  0
   -0.6941   -4.8205    0.0000 O   0  0  0  0  0  0  0  0  0  0  0  0
   -1.4085   -3.5830    0.0000 N   0  0  0  0  0  0  0  0  0  0  0  0
   -1.4085   -2.7580    0.0000 C   0  0  0  0  0  0  0  0  0  0  0  0
   -2.1230   -2.3455    0.0000 O   0  0  0  0  0  0  0  0  0  0  0  0
  1  2  1  0  0  0  0
  2  3  1  0  0  0  0
  3  4  2  0  0  0  0
  4  5  1  0  0  0  0
  5  6  2  0  0  0  0
  5  7  1  0  0  0  0
  7  8  1  0  0  0  0
  8  9  1  0  0  0  0
  9 10  1  0  0  0  0
 10 11  1  0  0  0  0
 10 12  1  0  0  0  0
 12 13  1  0  0  0  0
 13 14  1  0  0  0  0
 14 15  1  0  0  0  0
 14 16  1  0  0  0  0
  8 16  1  0  0  0  0
  4 17  1  0  0  0  0
 17 18  2  0  0  0  0
 17 19  1  0  0  0  0
 19 20  1  0  0  0  0
  2 20  1  0  0  0  0
 20 21  2  0  0  0  0
M  END
>  <Catalog ID>
Z3856732661

>  <Plate_ID>
2026983-X50-04

>  <Well>
H02

>  <V, µL>
50

>  <Conc, mM>
10

>  <Formula>
C13H21N5O3

>  <MW>
295.3375

>  <Purity>
100

>  <PO>
5A-64168

>  <MW_salt>
0

>  <Stereochem.data>
Achiral

>  <Geometric.isomer>
None

>  <Chemical name>
N-(1,4-dimethyl-1,4-diazepan-6-yl)-1-methyl-2,4-dioxo-1,2,3,4-tetrahydropyrimidine-5-carboxamide

>  <ClogP>
-0,947

>  <logS>
-0,171

>  <HBD>
2

>  <HBA>
5

>  <TPSA>
84,99

>  <RotBonds>
2

$$$$

  Mrv1925 04172511352D          

 28 31  0  0  0  0            999 V2000
    0.4210    2.0625    0.0000 C   0  0  0  0  0  0  0  0  0  0  0  0
    1.1355    2.4750    0.0000 C   0  0  0  0  0  0  0  0  0  0  0  0
    1.1355    3.3000    0.0000 C   0  0  0  0  0  0  0  0  0  0  0  0
    1.8500    2.0625    0.0000 C   0  0  0  0  0  0  0  0  0  0  0  0
    2.5645    2.4750    0.0000 C   0  0  0  0  0  0  0  0  0  0  0  0
    2.5645    3.3000    0.0000 C   0  0  0  0  0  0  0  0  0  0  0  0
    1.8500    3.7125    0.0000 O   0  0  0  0  0  0  0  0  0  0  0  0
    3.2789    3.7125    0.0000 N   0  0  0  0  0  0  0  0  0  0  0  0
    3.9934    3.3000    0.0000 C   0  0  0  0  0  0  0  0  0  0  0  0
    3.9934    2.4750    0.0000 C   0  0  0  0  0  0  0  0  0  0  0  0
    3.2789    2.0625    0.0000 N   0  0  0  0  0  0  0  0  0  0  0  0
    3.2789    1.2375    0.0000 C   0  0  0  0  0  0  0  0  0  0  0  0
    3.9934    0.8250    0.0000 N   0  0  0  0  0  0  0  0  0  0  0  0
    3.9934    0.0000    0.0000 C   0  0  0  0  0  0  0  0  0  0  0  0
    3.2789   -0.4125    0.0000 N   0  0  0  0  0  0  0  0  0  0  0  0
    2.5645    0.0000    0.0000 C   0  0  0  0  0  0  0  0  0  0  0  0
    2.5645    0.8250    0.0000 C   0  0  0  0  0  0  0  0  0  0  0  0
    1.7798    1.0799    0.0000 N   0  0  0  0  0  0  0  0  0  0  0  0
    1.2949    0.4125    0.0000 C   0  0  0  0  0  0  0  0  0  0  0  0
    1.7798   -0.2549    0.0000 N   0  0  0  0  0  0  0  0  0  0  0  0
    1.5249   -1.0396    0.0000 C   0  0  0  0  0  0  0  0  0  0  0  0
    1.8994   -1.7746    0.0000 C   0  0  0  0  0  0  0  0  0  0  0  0
    1.1644   -2.1492    0.0000 C   0  0  0  0  0  0  0  0  0  0  0  0
    1.5389   -2.8843    0.0000 C   0  0  0  0  0  0  0  0  0  0  0  0
    2.3628   -2.9274    0.0000 O   0  0  0  0  0  0  0  0  0  0  0  0
    0.4293   -2.5237    0.0000 C   0  0  0  0  0  0  0  0  0  0  0  0
   -0.2626   -2.0744    0.0000 O   0  0  0  0  0  0  0  0  0  0  0  0
    0.7898   -1.4141    0.0000 C   0  0  0  0  0  0  0  0  0  0  0  0
  1  2  1  0  0  0  0
  2  3  1  0  0  0  0
  2  4  1  0  0  0  0
  4  5  1  0  0  0  0
  5  6  1  0  0  0  0
  6  7  2  0  0  0  0
  6  8  1  0  0  0  0
  8  9  1  0  0  0  0
  9 10  1  0  0  0  0
 10 11  1  0  0  0  0
  5 11  1  0  0  0  0
 11 12  1  0  0  0  0
 12 13  1  0  0  0  0
 13 14  2  0  0  0  0
 14 15  1  0  0  0  0
 15 16  2  0  0  0  0
 16 17  1  0  0  0  0
 12 17  2  0  0  0  0
 17 18  1  0  0  0  0
 18 19  2  0  0  0  0
 19 20  1  0  0  0  0
 16 20  1  0  0  0  0
 20 21  1  0  0  0  0
 21 22  1  0  0  0  0
 22 23  1  0  0  0  0
 23 24  1  0  0  0  0
 24 25  1  0  0  0  0
 23 26  1  0  0  0  0
 26 27  1  0  0  0  0
 23 28  1  0  0  0  0
 21 28  1  0  0  0  0
M  END
>  <Catalog ID>
Z2760963619

>  <Plate_ID>
2026983-X50-04

>  <Well>
A03

>  <V, µL>
50

>  <Conc, mM>
10

>  <Formula>
C19H28N6O3

>  <MW>
388.464

>  <Purity>
96.04

>  <PO>
5A-64168

>  <MW_salt>
0

>  <Stereochem.data>
Racemic or presumed racemic or meso

>  <Geometric.isomer>
None

>  <Chemical name>
4-{9-[3,3-bis(hydroxymethyl)cyclobutyl]-9H-purin-6-yl}-3-(2-methylpropyl)piperazin-2-one

>  <ClogP>
-0,029

>  <logS>
-2,88

>  <HBD>
3

>  <HBA>
7

>  <TPSA>
116,4

>  <RotBonds>
6

$$$$

  Mrv1925 04172511352D          

 29 33  0  0  0  0            999 V2000
    5.0998    3.3603    0.0000 C   0  0  0  0  0  0  0  0  0  0  0  0
    4.6873    2.6459    0.0000 C   0  0  0  0  0  0  0  0  0  0  0  0
    5.0998    1.9314    0.0000 C   0  0  0  0  0  0  0  0  0  0  0  0
    3.8623    2.6459    0.0000 C   0  0  0  0  0  0  0  0  0  0  0  0
    3.2789    2.0625    0.0000 N   0  0  0  0  0  0  0  0  0  0  0  0
    2.6956    2.6459    0.0000 C   0  0  0  0  0  0  0  0  0  0  0  0
    3.2789    3.2292    0.0000 C   0  0  0  0  0  0  0  0  0  0  0  0
    2.5645    3.6417    0.0000 C   0  0  0  0  0  0  0  0  0  0  0  0
    2.5645    4.4667    0.0000 C   0  0  0  0  0  0  0  0  0  0  0  0
    3.2789    4.8792    0.0000 C   0  0  0  0  0  0  0  0  0  0  0  0
    3.9934    4.4667    0.0000 C   0  0  0  0  0  0  0  0  0  0  0  0
    3.9934    3.6417    0.0000 C   0  0  0  0  0  0  0  0  0  0  0  0
    3.2789    1.2375    0.0000 C   0  0  0  0  0  0  0  0  0  0  0  0
    3.9934    0.8250    0.0000 N   0  0  0  0  0  0  0  0  0  0  0  0
    3.9934    0.0000    0.0000 C   0  0  0  0  0  0  0  0  0  0  0  0
    3.2789   -0.4125    0.0000 N   0  0  0  0  0  0  0  0  0  0  0  0
    2.5645    0.0000    0.0000 C   0  0  0  0  0  0  0  0  0  0  0  0
    2.5645    0.8250    0.0000 C   0  0  0  0  0  0  0  0  0  0  0  0
    1.7798    1.0799    0.0000 N   0  0  0  0  0  0  0  0  0  0  0  0
    1.2949    0.4125    0.0000 C   0  0  0  0  0  0  0  0  0  0  0  0
    1.7798   -0.2549    0.0000 N   0  0  0  0  0  0  0  0  0  0  0  0
    1.5249   -1.0396    0.0000 C   0  0  0  0  0  0  0  0  0  0  0  0
    1.8994   -1.7746    0.0000 C   0  0  0  0  0  0  0  0  0  0  0  0
    1.1644   -2.1492    0.0000 C   0  0  0  0  0  0  0  0  0  0  0  0
    1.5389   -2.8843    0.0000 C   0  0  0  0  0  0  0  0  0  0  0  0
    2.3628   -2.9274    0.0000 O   0  0  0  0  0  0  0  0  0  0  0  0
    0.4293   -2.5237    0.0000 C   0  0  0  0  0  0  0  0  0  0  0  0
   -0.2626   -2.0744    0.0000 O   0  0  0  0  0  0  0  0  0  0  0  0
    0.7898   -1.4141    0.0000 C   0  0  0  0  0  0  0  0  0  0  0  0
  1  2  1  0  0  0  0
  2  3  1  0  0  0  0
  2  4  1  0  0  0  0
  4  5  1  0  0  0  0
  5  6  1  0  0  0  0
  6  7  1  0  0  0  0
  4  7  1  0  0  0  0
  7  8  1  0  0  0  0
  8  9  1  0  0  0  0
  9 10  1  0  0  0  0
 10 11  1  0  0  0  0
 11 12  1  0  0  0  0
  7 12  1  0  0  0  0
  5 13  1  0  0  0  0
 13 14  1  0  0  0  0
 14 15  2  0  0  0  0
 15 16  1  0  0  0  0
 16 17  2  0  0  0  0
 17 18  1  0  0  0  0
 13 18  2  0  0  0  0
 18 19  1  0  0  0  0
 19 20  2  0  0  0  0
 20 21  1  0  0  0  0
 17 21  1  0  0  0  0
 21 22  1  0  0  0  0
 22 23  1  0  0  0  0
 23 24  1  0  0  0  0
 24 25  1  0  0  0  0
 25 26  1  0  0  0  0
 24 27  1  0  0  0  0
 27 28  1  0  0  0  0
 24 29  1  0  0  0  0
 22 29  1  0  0  0  0
M  END
>  <Catalog ID>
Z2760974681

>  <Plate_ID>
2026983-X50-04

>  <Well>
B03

>  <V, µL>
50

>  <Conc, mM>
10

>  <Formula>
C22H33N5O2

>  <MW>
399.5297

>  <Purity>
100

>  <PO>
5A-64168

>  <MW_salt>
0

>  <Stereochem.data>
Racemic or presumed racemic or meso

>  <Geometric.isomer>
None

>  <Chemical name>
[1-(hydroxymethyl)-3-{6-[1-(propan-2-yl)-2-azaspiro[3.5]nonan-2-yl]-9H-purin-9-yl}cyclobutyl]methanol

>  <ClogP>
2,109

>  <logS>
-4,368

>  <HBD>
2

>  <HBA>
6

>  <TPSA>
87,3

>  <RotBonds>
5

$$$$

  Mrv1925 04172511352D          

 28 32  0  0  0  0            999 V2000
    0.0000   -1.6500    0.0000 O   0  0  0  0  0  0  0  0  0  0  0  0
    0.7145   -1.2375    0.0000 C   0  0  0  0  0  0  0  0  0  0  0  0
    0.7145   -0.4125    0.0000 C   0  0  0  0  0  0  0  0  0  0  0  0
    1.4289    0.0000    0.0000 N   0  0  0  0  0  0  0  0  0  0  0  0
    1.4289    0.8250    0.0000 C   0  0  0  0  0  0  0  0  0  0  0  0
    0.7145    1.2375    0.0000 N   0  0  0  0  0  0  0  0  0  0  0  0
    0.7145    2.0625    0.0000 C   0  0  0  0  0  0  0  0  0  0  0  0
    1.4289    2.4750    0.0000 N   0  0  0  0  0  0  0  0  0  0  0  0
    2.1434    2.0625    0.0000 C   0  0  0  0  0  0  0  0  0  0  0  0
    2.1434    1.2375    0.0000 C   0  0  0  0  0  0  0  0  0  0  0  0
    2.9280    0.9826    0.0000 N   0  0  0  0  0  0  0  0  0  0  0  0
    3.4130    1.6500    0.0000 C   0  0  0  0  0  0  0  0  0  0  0  0
    2.9280    2.3174    0.0000 N   0  0  0  0  0  0  0  0  0  0  0  0
    3.1830    3.1021    0.0000 C   0  0  0  0  0  0  0  0  0  0  0  0
    2.8084    3.8371    0.0000 C   0  0  0  0  0  0  0  0  0  0  0  0
    3.5435    4.2117    0.0000 C   0  0  0  0  0  0  0  0  0  0  0  0
    3.1690    4.9468    0.0000 C   0  0  0  0  0  0  0  0  0  0  0  0
    2.3451    4.9899    0.0000 O   0  0  0  0  0  0  0  0  0  0  0  0
    4.2786    4.5862    0.0000 C   0  0  0  0  0  0  0  0  0  0  0  0
    4.9705    4.1369    0.0000 O   0  0  0  0  0  0  0  0  0  0  0  0
    3.9181    3.4766    0.0000 C   0  0  0  0  0  0  0  0  0  0  0  0
    2.1434   -0.4125    0.0000 C   0  0  0  0  0  0  0  0  0  0  0  0
    2.8579    0.0000    0.0000 C   0  0  0  0  0  0  0  0  0  0  0  0
    3.5724   -0.4125    0.0000 C   0  0  0  0  0  0  0  0  0  0  0  0
    3.5724   -1.2375    0.0000 C   0  0  0  0  0  0  0  0  0  0  0  0
    2.8579   -1.6500    0.0000 C   0  0  0  0  0  0  0  0  0  0  0  0
    2.1434   -1.2375    0.0000 C   0  0  0  0  0  0  0  0  0  0  0  0
    1.4289   -1.6500    0.0000 N   0  0  0  0  0  0  0  0  0  0  0  0
  1  2  2  0  0  0  0
  2  3  1  0  0  0  0
  3  4  1  0  0  0  0
  4  5  1  0  0  0  0
  5  6  1  0  0  0  0
  6  7  2  0  0  0  0
  7  8  1  0  0  0  0
  8  9  2  0  0  0  0
  9 10  1  0  0  0  0
  5 10  2  0  0  0  0
 10 11  1  0  0  0  0
 11 12  2  0  0  0  0
 12 13  1  0  0  0  0
  9 13  1  0  0  0  0
 13 14  1  0  0  0  0
 14 15  1  0  0  0  0
 15 16  1  0  0  0  0
 16 17  1  0  0  0  0
 17 18  1  0  0  0  0
 16 19  1  0  0  0  0
 19 20  1  0  0  0  0
 16 21  1  0  0  0  0
 14 21  1  0  0  0  0
  4 22  1  0  0  0  0
 22 23  1  0  0  0  0
 23 24  1  0  0  0  0
 24 25  1  0  0  0  0
 25 26  1  0  0  0  0
 26 27  1  0  0  0  0
 22 27  1  0  0  0  0
 27 28  1  0  0  0  0
  2 28  1  0  0  0  0
M  END
>  <Catalog ID>
Z2760955364

>  <Plate_ID>
2026983-X50-04

>  <Well>
C03

>  <V, µL>
50

>  <Conc, mM>
10

>  <Formula>
C19H26N6O3

>  <MW>
386.4481

>  <Purity>
100

>  <PO>
5A-64168

>  <MW_salt>
0

>  <Stereochem.data>
Diastereomeric mixture

>  <Geometric.isomer>
Unknown

>  <Chemical name>
4-{9-[3,3-bis(hydroxymethyl)cyclobutyl]-9H-purin-6-yl}-decahydroquinoxalin-2-one

>  <ClogP>
-0,573

>  <logS>
-1,987

>  <HBD>
3

>  <HBA>
7

>  <TPSA>
116,4

>  <RotBonds>
4

$$$$

  Mrv1925 04172511352D          

 29 33  0  0  1  0            999 V2000
    2.8984    5.1326    0.0000 C   0  0  0  0  0  0  0  0  0  0  0  0
    3.4505    4.5195    0.0000 N   0  0  0  0  0  0  0  0  0  0  0  0
    4.2709    4.6057    0.0000 C   0  0  0  0  0  0  0  0  0  0  0  0
    4.6834    5.3202    0.0000 O   0  0  0  0  0  0  0  0  0  0  0  0
    4.6065    3.8520    0.0000 N   0  0  0  0  0  0  0  0  0  0  0  0
    3.9934    3.3000    0.0000 C   0  0  2  0  0  0  0  0  0  0  0  0
    3.9934    2.4750    0.0000 C   0  0  0  0  0  0  0  0  0  0  0  0
    3.2789    2.0625    0.0000 N   0  0  0  0  0  0  0  0  0  0  0  0
    2.5645    2.4750    0.0000 C   0  0  0  0  0  0  0  0  0  0  0  0
    2.5645    3.3000    0.0000 C   0  0  0  0  0  0  0  0  0  0  0  0
    3.2789    3.7125    0.0000 C   0  0  2  0  0  0  0  0  0  0  0  0
    3.2789    1.2375    0.0000 C   0  0  0  0  0  0  0  0  0  0  0  0
    3.9934    0.8250    0.0000 N   0  0  0  0  0  0  0  0  0  0  0  0
    3.9934    0.0000    0.0000 C   0  0  0  0  0  0  0  0  0  0  0  0
    3.2789   -0.4125    0.0000 N   0  0  0  0  0  0  0  0  0  0  0  0
    2.5645    0.0000    0.0000 C   0  0  0  0  0  0  0  0  0  0  0  0
    2.5645    0.8250    0.0000 C   0  0  0  0  0  0  0  0  0  0  0  0
    1.7798    1.0799    0.0000 N   0  0  0  0  0  0  0  0  0  0  0  0
    1.2949    0.4125    0.0000 C   0  0  0  0  0  0  0  0  0  0  0  0
    1.7798   -0.2549    0.0000 N   0  0  0  0  0  0  0  0  0  0  0  0
    1.5249   -1.0396    0.0000 C   0  0  0  0  0  0  0  0  0  0  0  0
    2.0769   -1.6527    0.0000 C   0  0  0  0  0  0  0  0  0  0  0  0
    1.3773   -2.0898    0.0000 C   0  0  0  0  0  0  0  0  0  0  0  0
    1.4061   -2.9143    0.0000 O   0  0  0  0  0  0  0  0  0  0  0  0
    2.5848   -1.0025    0.0000 C   0  0  0  0  0  0  0  0  0  0  0  0
    3.4018   -1.1174    0.0000 C   0  0  0  0  0  0  0  0  0  0  0  0
    3.7109   -1.8823    0.0000 O   0  0  0  0  0  0  0  0  0  0  0  0
    3.2030   -2.5324    0.0000 C   0  0  0  0  0  0  0  0  0  0  0  0
    2.3860   -2.4176    0.0000 C   0  0  0  0  0  0  0  0  0  0  0  0
  1  2  1  0  0  0  0
  2  3  1  0  0  0  0
  3  4  2  0  0  0  0
  3  5  1  0  0  0  0
  6  5  1  6  0  0  0
  6  7  1  0  0  0  0
  7  8  1  0  0  0  0
  8  9  1  0  0  0  0
  9 10  1  0  0  0  0
 11 10  1  0  0  0  0
  6 11  1  0  0  0  0
 11  2  1  6  0  0  0
  8 12  1  0  0  0  0
 12 13  1  0  0  0  0
 13 14  2  0  0  0  0
 14 15  1  0  0  0  0
 15 16  2  0  0  0  0
 16 17  1  0  0  0  0
 12 17  2  0  0  0  0
 17 18  1  0  0  0  0
 18 19  2  0  0  0  0
 19 20  1  0  0  0  0
 16 20  1  0  0  0  0
 20 21  1  0  0  0  0
 21 22  1  0  0  0  0
 22 23  1  0  0  0  0
 23 24  1  0  0  0  0
 22 25  1  0  0  0  0
 25 26  1  0  0  0  0
 26 27  1  0  0  0  0
 27 28  1  0  0  0  0
 28 29  1  0  0  0  0
 22 29  1  0  0  0  0
M  END
>  <Catalog ID>
Z2760974143

>  <Plate_ID>
2026983-X50-04

>  <Well>
D03

>  <V, µL>
50

>  <Conc, mM>
10

>  <Formula>
C19H27N7O3

>  <MW>
401.4628

>  <Purity>
100

>  <PO>
5A-64168

>  <MW_salt>
0

>  <Stereochem.data>
Single known enantiomer

>  <Geometric.isomer>
None

>  <Chemical name>
(3aR,7aS)-5-(9-{[4-(hydroxymethyl)oxan-4-yl]methyl}-9H-purin-6-yl)-1-methyl-octahydro-1H-imidazo[4,5-c]pyridin-2-one

>  <ClogP>
-1,804

>  <logS>
-2,315

>  <HBD>
2

>  <HBA>
7

>  <TPSA>
108,64

>  <RotBonds>
4

$$$$

  Mrv1925 04172511352D          

 20 21  0  0  0  0            999 V2000
    1.1891   -1.0196    0.0000 C   0  0  0  0  0  0  0  0  0  0  0  0
    0.9756   -0.2228    0.0000 C   0  0  0  0  0  0  0  0  0  0  0  0
    1.7725   -0.0092    0.0000 C   0  0  0  0  0  0  0  0  0  0  0  0
    0.1787   -0.4363    0.0000 C   0  0  0  0  0  0  0  0  0  0  0  0
    0.7620    0.5741    0.0000 N   0  0  0  0  0  0  0  0  0  0  0  0
   -0.0348    0.7877    0.0000 C   0  0  0  0  0  0  0  0  0  0  0  0
   -0.2484    1.5846    0.0000 C   0  0  0  0  0  0  0  0  0  0  0  0
   -1.0453    1.7981    0.0000 C   0  0  0  0  0  0  0  0  0  0  0  0
   -1.6286    1.2147    0.0000 N   0  0  0  0  0  0  0  0  0  0  0  0
   -2.4255    1.4282    0.0000 C   0  0  0  0  0  0  0  0  0  0  0  0
   -3.0089    0.8449    0.0000 C   0  0  0  0  0  0  0  0  0  0  0  0
   -3.5922    1.4282    0.0000 O   0  0  0  0  0  0  0  0  0  0  0  0
   -2.4255    0.2615    0.0000 C   0  0  0  0  0  0  0  0  0  0  0  0
   -3.0089   -0.3218    0.0000 C   0  0  0  0  0  0  0  0  0  0  0  0
   -3.5922    0.2615    0.0000 C   0  0  0  0  0  0  0  0  0  0  0  0
    0.3350    2.1679    0.0000 C   0  0  0  0  0  0  0  0  0  0  0  0
    0.1215    2.9648    0.0000 O   0  0  0  0  0  0  0  0  0  0  0  0
    1.1319    1.9544    0.0000 N   0  0  0  0  0  0  0  0  0  0  0  0
    1.3454    1.1575    0.0000 C   0  0  0  0  0  0  0  0  0  0  0  0
    2.1423    0.9440    0.0000 O   0  0  0  0  0  0  0  0  0  0  0  0
  1  2  1  0  0  0  0
  2  3  1  0  0  0  0
  2  4  1  0  0  0  0
  2  5  1  0  0  0  0
  5  6  1  0  0  0  0
  6  7  2  0  0  0  0
  7  8  1  0  0  0  0
  8  9  1  0  0  0  0
  9 10  1  0  0  0  0
 10 11  1  0  0  0  0
 11 12  1  0  0  0  0
 11 13  1  0  0  0  0
 13 14  1  0  0  0  0
 14 15  1  0  0  0  0
 11 15  1  0  0  0  0
  7 16  1  0  0  0  0
 16 17  2  0  0  0  0
 16 18  1  0  0  0  0
 18 19  1  0  0  0  0
  5 19  1  0  0  0  0
 19 20  2  0  0  0  0
M  END
>  <Catalog ID>
Z2998966221

>  <Plate_ID>
2026983-X50-04

>  <Well>
E03

>  <V, µL>
50

>  <Conc, mM>
10

>  <Formula>
C14H23N3O3

>  <MW>
281.3507

>  <Purity>
100

>  <PO>
5A-64168

>  <MW_salt>
0

>  <Stereochem.data>
Achiral

>  <Geometric.isomer>
None

>  <Chemical name>
1-tert-butyl-5-({[(1-hydroxycyclobutyl)methyl]amino}methyl)-1,2,3,4-tetrahydropyrimidine-2,4-dione

>  <ClogP>
-0,284

>  <logS>
-1,715

>  <HBD>
3

>  <HBA>
4

>  <TPSA>
81,67

>  <RotBonds>
5

$$$$

  Mrv1925 04172511352D          

 27 30  0  0  0  0            999 V2000
   -0.2934    2.4750    0.0000 C   0  0  0  0  0  0  0  0  0  0  0  0
    0.4210    2.0625    0.0000 O   0  0  0  0  0  0  0  0  0  0  0  0
    1.1355    2.4750    0.0000 C   0  0  0  0  0  0  0  0  0  0  0  0
    1.8500    2.0625    0.0000 C   0  0  0  0  0  0  0  0  0  0  0  0
    2.5645    2.4750    0.0000 C   0  0  0  0  0  0  0  0  0  0  0  0
    2.5645    3.3000    0.0000 C   0  0  0  0  0  0  0  0  0  0  0  0
    3.2789    3.7125    0.0000 O   0  0  0  0  0  0  0  0  0  0  0  0
    3.9934    3.3000    0.0000 C   0  0  0  0  0  0  0  0  0  0  0  0
    3.9934    2.4750    0.0000 C   0  0  0  0  0  0  0  0  0  0  0  0
    3.2789    2.0625    0.0000 N   0  0  0  0  0  0  0  0  0  0  0  0
    3.2789    1.2375    0.0000 C   0  0  0  0  0  0  0  0  0  0  0  0
    3.9934    0.8250    0.0000 N   0  0  0  0  0  0  0  0  0  0  0  0
    3.9934    0.0000    0.0000 C   0  0  0  0  0  0  0  0  0  0  0  0
    3.2789   -0.4125    0.0000 N   0  0  0  0  0  0  0  0  0  0  0  0
    2.5645    0.0000    0.0000 C   0  0  0  0  0  0  0  0  0  0  0  0
    2.5645    0.8250    0.0000 C   0  0  0  0  0  0  0  0  0  0  0  0
    1.7798    1.0799    0.0000 N   0  0  0  0  0  0  0  0  0  0  0  0
    1.2949    0.4125    0.0000 C   0  0  0  0  0  0  0  0  0  0  0  0
    1.7798   -0.2549    0.0000 N   0  0  0  0  0  0  0  0  0  0  0  0
    1.5249   -1.0396    0.0000 C   0  0  0  0  0  0  0  0  0  0  0  0
    2.0769   -1.6527    0.0000 C   0  0  0  0  0  0  0  0  0  0  0  0
    1.4095   -2.1376    0.0000 O   0  0  0  0  0  0  0  0  0  0  0  0
    2.6290   -1.0396    0.0000 C   0  0  0  0  0  0  0  0  0  0  0  0
    3.3826   -1.3751    0.0000 C   0  0  0  0  0  0  0  0  0  0  0  0
    3.2964   -2.1956    0.0000 O   0  0  0  0  0  0  0  0  0  0  0  0
    2.4894   -2.3671    0.0000 C   0  0  0  0  0  0  0  0  0  0  0  0
    2.1539   -3.1208    0.0000 C   0  0  0  0  0  0  0  0  0  0  0  0
  1  2  1  0  0  0  0
  2  3  1  0  0  0  0
  3  4  1  0  0  0  0
  4  5  1  0  0  0  0
  5  6  1  0  0  0  0
  6  7  1  0  0  0  0
  7  8  1  0  0  0  0
  8  9  1  0  0  0  0
  9 10  1  0  0  0  0
  5 10  1  0  0  0  0
 10 11  1  0  0  0  0
 11 12  1  0  0  0  0
 12 13  2  0  0  0  0
 13 14  1  0  0  0  0
 14 15  2  0  0  0  0
 15 16  1  0  0  0  0
 11 16  2  0  0  0  0
 16 17  1  0  0  0  0
 17 18  2  0  0  0  0
 18 19  1  0  0  0  0
 15 19  1  0  0  0  0
 19 20  1  0  0  0  0
 20 21  1  0  0  0  0
 21 22  1  0  0  0  0
 21 23  1  0  0  0  0
 23 24  1  0  0  0  0
 24 25  1  0  0  0  0
 25 26  1  0  0  0  0
 21 26  1  0  0  0  0
 26 27  1  0  0  0  0
M  END
>  <Catalog ID>
Z2760972084

>  <Plate_ID>
2026983-X50-04

>  <Well>
F03

>  <V, µL>
50

>  <Conc, mM>
10

>  <Formula>
C18H27N5O4

>  <MW>
377.4381

>  <Purity>
92.36

>  <PO>
5A-64168

>  <MW_salt>
0

>  <Stereochem.data>
Diastereomeric mixture

>  <Geometric.isomer>
None

>  <Chemical name>
3-({6-[3-(2-methoxyethyl)morpholin-4-yl]-9H-purin-9-yl}methyl)-2-methyloxolan-3-ol

>  <ClogP>
-0,269

>  <logS>
-2,861

>  <HBD>
1

>  <HBA>
8

>  <TPSA>
94,76

>  <RotBonds>
6

$$$$

  Mrv1925 04172511352D          

 30 33  0  0  0  0            999 V2000
    1.8500    7.0125    0.0000 C   0  0  0  0  0  0  0  0  0  0  0  0
    1.8500    6.1875    0.0000 C   0  0  0  0  0  0  0  0  0  0  0  0
    2.5645    5.7750    0.0000 N   0  0  0  0  0  0  0  0  0  0  0  0
    2.5645    4.9500    0.0000 C   0  0  0  0  0  0  0  0  0  0  0  0
    1.8500    4.5375    0.0000 O   0  0  0  0  0  0  0  0  0  0  0  0
    3.2789    4.5375    0.0000 C   0  0  0  0  0  0  0  0  0  0  0  0
    3.2789    3.7125    0.0000 N   0  0  0  0  0  0  0  0  0  0  0  0
    3.9934    3.3000    0.0000 C   0  0  0  0  0  0  0  0  0  0  0  0
    3.9934    2.4750    0.0000 C   0  0  0  0  0  0  0  0  0  0  0  0
    3.2789    2.0625    0.0000 N   0  0  0  0  0  0  0  0  0  0  0  0
    2.5645    2.4750    0.0000 C   0  0  0  0  0  0  0  0  0  0  0  0
    2.5645    3.3000    0.0000 C   0  0  0  0  0  0  0  0  0  0  0  0
    3.2789    1.2375    0.0000 C   0  0  0  0  0  0  0  0  0  0  0  0
    3.9934    0.8250    0.0000 N   0  0  0  0  0  0  0  0  0  0  0  0
    3.9934    0.0000    0.0000 C   0  0  0  0  0  0  0  0  0  0  0  0
    3.2789   -0.4125    0.0000 N   0  0  0  0  0  0  0  0  0  0  0  0
    2.5645    0.0000    0.0000 C   0  0  0  0  0  0  0  0  0  0  0  0
    2.5645    0.8250    0.0000 C   0  0  0  0  0  0  0  0  0  0  0  0
    1.7798    1.0799    0.0000 N   0  0  0  0  0  0  0  0  0  0  0  0
    1.2949    0.4125    0.0000 C   0  0  0  0  0  0  0  0  0  0  0  0
    1.7798   -0.2549    0.0000 N   0  0  0  0  0  0  0  0  0  0  0  0
    1.5249   -1.0396    0.0000 C   0  0  0  0  0  0  0  0  0  0  0  0
    0.7179   -1.2111    0.0000 C   0  0  0  0  0  0  0  0  0  0  0  0
    0.6891   -0.3866    0.0000 C   0  0  0  0  0  0  0  0  0  0  0  0
   -0.0393    0.0007    0.0000 O   0  0  0  0  0  0  0  0  0  0  0  0
    1.0270   -1.9760    0.0000 C   0  0  0  0  0  0  0  0  0  0  0  0
    0.5191   -2.6261    0.0000 C   0  0  0  0  0  0  0  0  0  0  0  0
   -0.2979   -2.5113    0.0000 O   0  0  0  0  0  0  0  0  0  0  0  0
   -0.6070   -1.7464    0.0000 C   0  0  0  0  0  0  0  0  0  0  0  0
   -0.0990   -1.0963    0.0000 C   0  0  0  0  0  0  0  0  0  0  0  0
  1  2  1  0  0  0  0
  2  3  1  0  0  0  0
  3  4  1  0  0  0  0
  4  5  2  0  0  0  0
  4  6  1  0  0  0  0
  6  7  1  0  0  0  0
  7  8  1  0  0  0  0
  8  9  1  0  0  0  0
  9 10  1  0  0  0  0
 10 11  1  0  0  0  0
 11 12  1  0  0  0  0
  7 12  1  0  0  0  0
 10 13  1  0  0  0  0
 13 14  1  0  0  0  0
 14 15  2  0  0  0  0
 15 16  1  0  0  0  0
 16 17  2  0  0  0  0
 17 18  1  0  0  0  0
 13 18  2  0  0  0  0
 18 19  1  0  0  0  0
 19 20  2  0  0  0  0
 20 21  1  0  0  0  0
 17 21  1  0  0  0  0
 21 22  1  0  0  0  0
 22 23  1  0  0  0  0
 23 24  1  0  0  0  0
 24 25  1  0  0  0  0
 23 26  1  0  0  0  0
 26 27  1  0  0  0  0
 27 28  1  0  0  0  0
 28 29  1  0  0  0  0
 29 30  1  0  0  0  0
 23 30  1  0  0  0  0
M  END
>  <Catalog ID>
Z2760936584

>  <Plate_ID>
2026983-X50-04

>  <Well>
G03

>  <V, µL>
50

>  <Conc, mM>
10

>  <Formula>
C20H31N7O3

>  <MW>
417.5052

>  <Purity>
100

>  <PO>
5A-64168

>  <MW_salt>
0

>  <Stereochem.data>
Achiral

>  <Geometric.isomer>
None

>  <Chemical name>
N-ethyl-2-[4-(9-{[4-(hydroxymethyl)oxan-4-yl]methyl}-9H-purin-6-yl)piperazin-1-yl]acetamide

>  <ClogP>
-0,674

>  <logS>
-1,485

>  <HBD>
2

>  <HBA>
8

>  <TPSA>
108,64

>  <RotBonds>
7

$$$$

  Mrv1925 04172511352D          

 27 30  0  0  0  0            999 V2000
    1.8500    6.1875    0.0000 C   0  0  0  0  0  0  0  0  0  0  0  0
    2.5645    5.7750    0.0000 O   0  0  0  0  0  0  0  0  0  0  0  0
    2.5645    4.9500    0.0000 C   0  0  0  0  0  0  0  0  0  0  0  0
    3.2789    4.5375    0.0000 C   0  0  0  0  0  0  0  0  0  0  0  0
    3.2789    3.7125    0.0000 N   0  0  0  0  0  0  0  0  0  0  0  0
    3.9934    3.3000    0.0000 C   0  0  0  0  0  0  0  0  0  0  0  0
    3.9934    2.4750    0.0000 C   0  0  0  0  0  0  0  0  0  0  0  0
    3.2789    2.0625    0.0000 N   0  0  0  0  0  0  0  0  0  0  0  0
    2.5645    2.4750    0.0000 C   0  0  0  0  0  0  0  0  0  0  0  0
    2.5645    3.3000    0.0000 C   0  0  0  0  0  0  0  0  0  0  0  0
    1.8500    3.7125    0.0000 O   0  0  0  0  0  0  0  0  0  0  0  0
    3.2789    1.2375    0.0000 C   0  0  0  0  0  0  0  0  0  0  0  0
    3.9934    0.8250    0.0000 N   0  0  0  0  0  0  0  0  0  0  0  0
    3.9934    0.0000    0.0000 C   0  0  0  0  0  0  0  0  0  0  0  0
    3.2789   -0.4125    0.0000 N   0  0  0  0  0  0  0  0  0  0  0  0
    2.5645    0.0000    0.0000 C   0  0  0  0  0  0  0  0  0  0  0  0
    2.5645    0.8250    0.0000 C   0  0  0  0  0  0  0  0  0  0  0  0
    1.7798    1.0799    0.0000 N   0  0  0  0  0  0  0  0  0  0  0  0
    1.2949    0.4125    0.0000 C   0  0  0  0  0  0  0  0  0  0  0  0
    1.7798   -0.2549    0.0000 N   0  0  0  0  0  0  0  0  0  0  0  0
    1.5249   -1.0396    0.0000 C   0  0  0  0  0  0  0  0  0  0  0  0
    2.0769   -1.6527    0.0000 C   0  0  0  0  0  0  0  0  0  0  0  0
    1.4638   -2.2047    0.0000 C   0  0  0  0  0  0  0  0  0  0  0  0
    1.6354   -3.0117    0.0000 O   0  0  0  0  0  0  0  0  0  0  0  0
    2.6900   -1.1006    0.0000 C   0  0  0  0  0  0  0  0  0  0  0  0
    3.2421   -1.7137    0.0000 O   0  0  0  0  0  0  0  0  0  0  0  0
    2.6290   -2.2657    0.0000 C   0  0  0  0  0  0  0  0  0  0  0  0
  1  2  1  0  0  0  0
  2  3  1  0  0  0  0
  3  4  1  0  0  0  0
  4  5  1  0  0  0  0
  5  6  1  0  0  0  0
  6  7  1  0  0  0  0
  7  8  1  0  0  0  0
  8  9  1  0  0  0  0
  9 10  1  0  0  0  0
  5 10  1  0  0  0  0
 10 11  2  0  0  0  0
  8 12  1  0  0  0  0
 12 13  1  0  0  0  0
 13 14  2  0  0  0  0
 14 15  1  0  0  0  0
 15 16  2  0  0  0  0
 16 17  1  0  0  0  0
 12 17  2  0  0  0  0
 17 18  1  0  0  0  0
 18 19  2  0  0  0  0
 19 20  1  0  0  0  0
 16 20  1  0  0  0  0
 20 21  1  0  0  0  0
 21 22  1  0  0  0  0
 22 23  1  0  0  0  0
 23 24  1  0  0  0  0
 22 25  1  0  0  0  0
 25 26  1  0  0  0  0
 26 27  1  0  0  0  0
 22 27  1  0  0  0  0
M  END
>  <Catalog ID>
Z2760956722

>  <Plate_ID>
2026983-X50-04

>  <Well>
H03

>  <V, µL>
50

>  <Conc, mM>
10

>  <Formula>
C17H24N6O4

>  <MW>
376.4103

>  <Purity>
100

>  <PO>
5A-64168

>  <MW_salt>
0

>  <Stereochem.data>
Achiral

>  <Geometric.isomer>
None

>  <Chemical name>
4-(9-{[3-(hydroxymethyl)oxetan-3-yl]methyl}-9H-purin-6-yl)-1-(2-methoxyethyl)piperazin-2-one

>  <ClogP>
-1,512

>  <logS>
-1,929

>  <HBD>
1

>  <HBA>
8

>  <TPSA>
105,84

>  <RotBonds>
7

$$$$

  Mrv1925 04172511352D          

 27 30  0  0  0  0            999 V2000
    1.1355    5.7750    0.0000 C   0  0  0  0  0  0  0  0  0  0  0  0
    1.1355    4.9500    0.0000 C   0  0  0  0  0  0  0  0  0  0  0  0
    0.4210    4.5375    0.0000 O   0  0  0  0  0  0  0  0  0  0  0  0
    1.8500    4.5375    0.0000 N   0  0  0  0  0  0  0  0  0  0  0  0
    1.8500    3.7125    0.0000 C   0  0  0  0  0  0  0  0  0  0  0  0
    2.5645    3.3000    0.0000 C   0  0  0  0  0  0  0  0  0  0  0  0
    3.2789    3.7125    0.0000 C   0  0  0  0  0  0  0  0  0  0  0  0
    3.9934    3.3000    0.0000 C   0  0  0  0  0  0  0  0  0  0  0  0
    3.9934    2.4750    0.0000 C   0  0  0  0  0  0  0  0  0  0  0  0
    3.2789    2.0625    0.0000 N   0  0  0  0  0  0  0  0  0  0  0  0
    2.5645    2.4750    0.0000 C   0  0  0  0  0  0  0  0  0  0  0  0
    3.2789    1.2375    0.0000 C   0  0  0  0  0  0  0  0  0  0  0  0
    3.9934    0.8250    0.0000 N   0  0  0  0  0  0  0  0  0  0  0  0
    3.9934    0.0000    0.0000 C   0  0  0  0  0  0  0  0  0  0  0  0
    3.2789   -0.4125    0.0000 N   0  0  0  0  0  0  0  0  0  0  0  0
    2.5645    0.0000    0.0000 C   0  0  0  0  0  0  0  0  0  0  0  0
    2.5645    0.8250    0.0000 C   0  0  0  0  0  0  0  0  0  0  0  0
    1.7798    1.0799    0.0000 N   0  0  0  0  0  0  0  0  0  0  0  0
    1.2949    0.4125    0.0000 C   0  0  0  0  0  0  0  0  0  0  0  0
    1.7798   -0.2549    0.0000 N   0  0  0  0  0  0  0  0  0  0  0  0
    1.5249   -1.0396    0.0000 C   0  0  0  0  0  0  0  0  0  0  0  0
    2.0769   -1.6527    0.0000 C   0  0  0  0  0  0  0  0  0  0  0  0
    1.4638   -2.2047    0.0000 C   0  0  0  0  0  0  0  0  0  0  0  0
    1.6354   -3.0117    0.0000 O   0  0  0  0  0  0  0  0  0  0  0  0
    2.6900   -1.1006    0.0000 C   0  0  0  0  0  0  0  0  0  0  0  0
    3.2421   -1.7137    0.0000 O   0  0  0  0  0  0  0  0  0  0  0  0
    2.6290   -2.2657    0.0000 C   0  0  0  0  0  0  0  0  0  0  0  0
  1  2  1  0  0  0  0
  2  3  2  0  0  0  0
  2  4  1  0  0  0  0
  4  5  1  0  0  0  0
  5  6  1  0  0  0  0
  6  7  1  0  0  0  0
  7  8  1  0  0  0  0
  8  9  1  0  0  0  0
  9 10  1  0  0  0  0
 10 11  1  0  0  0  0
  6 11  1  0  0  0  0
 10 12  1  0  0  0  0
 12 13  1  0  0  0  0
 13 14  2  0  0  0  0
 14 15  1  0  0  0  0
 15 16  2  0  0  0  0
 16 17  1  0  0  0  0
 12 17  2  0  0  0  0
 17 18  1  0  0  0  0
 18 19  2  0  0  0  0
 19 20  1  0  0  0  0
 16 20  1  0  0  0  0
 20 21  1  0  0  0  0
 21 22  1  0  0  0  0
 22 23  1  0  0  0  0
 23 24  1  0  0  0  0
 22 25  1  0  0  0  0
 25 26  1  0  0  0  0
 26 27  1  0  0  0  0
 22 27  1  0  0  0  0
M  END
>  <Catalog ID>
Z2760941182

>  <Plate_ID>
2026983-X50-04

>  <Well>
A04

>  <V, µL>
50

>  <Conc, mM>
10

>  <Formula>
C18H26N6O3

>  <MW>
374.4374

>  <Purity>
91.21

>  <PO>
5A-64168

>  <MW_salt>
0

>  <Stereochem.data>
Racemic or presumed racemic or meso

>  <Geometric.isomer>
None

>  <Chemical name>
N-{[1-(9-{[3-(hydroxymethyl)oxetan-3-yl]methyl}-9H-purin-6-yl)piperidin-3-yl]methyl}acetamide

>  <ClogP>
-2,552

>  <logS>
-2,371

>  <HBD>
2

>  <HBA>
7

>  <TPSA>
105,4

>  <RotBonds>
6

$$$$

  Mrv1925 04172511352D          

 28 30  0  0  0  0            999 V2000
    0.6188   -1.4941    0.0000 C   0  0  0  0  0  0  0  0  0  0  0  0
    1.4289   -1.6500    0.0000 C   0  0  0  0  0  0  0  0  0  0  0  0
    1.9690   -1.0264    0.0000 C   0  0  0  0  0  0  0  0  0  0  0  0
    1.6990   -2.4296    0.0000 N   0  0  0  0  0  0  0  0  0  0  0  0
    2.5091   -2.5855    0.0000 C   0  0  0  0  0  0  0  0  0  0  0  0
    3.0492   -1.9618    0.0000 C   0  0  0  0  0  0  0  0  0  0  0  0
    3.8593   -2.1177    0.0000 O   0  0  0  0  0  0  0  0  0  0  0  0
    4.3994   -1.4941    0.0000 C   0  0  0  0  0  0  0  0  0  0  0  0
    5.2096   -1.6500    0.0000 C   0  0  0  0  0  0  0  0  0  0  0  0
    5.7497   -1.0264    0.0000 O   0  0  0  0  0  0  0  0  0  0  0  0
    1.1589   -3.0532    0.0000 C   0  0  0  0  0  0  0  0  0  0  0  0
    1.4289   -3.8327    0.0000 N   0  0  0  0  0  0  0  0  0  0  0  0
    0.8889   -4.4564    0.0000 C   0  0  0  0  0  0  0  0  0  0  0  0
    0.0787   -4.3005    0.0000 N   0  0  0  0  0  0  0  0  0  0  0  0
   -0.1913   -3.5209    0.0000 C   0  0  0  0  0  0  0  0  0  0  0  0
    0.3488   -2.8973    0.0000 C   0  0  0  0  0  0  0  0  0  0  0  0
   -0.0775   -2.1909    0.0000 N   0  0  0  0  0  0  0  0  0  0  0  0
   -0.8810   -2.3780    0.0000 C   0  0  0  0  0  0  0  0  0  0  0  0
   -0.9513   -3.2000    0.0000 N   0  0  0  0  0  0  0  0  0  0  0  0
   -1.6577   -3.6262    0.0000 C   0  0  0  0  0  0  0  0  0  0  0  0
   -2.3800   -3.2276    0.0000 C   0  0  0  0  0  0  0  0  0  0  0  0
   -1.8620   -2.5855    0.0000 C   0  0  0  0  0  0  0  0  0  0  0  0
   -2.1591   -1.8158    0.0000 O   0  0  0  0  0  0  0  0  0  0  0  0
   -2.6472   -4.0081    0.0000 C   0  0  0  0  0  0  0  0  0  0  0  0
   -3.4567   -4.1671    0.0000 C   0  0  0  0  0  0  0  0  0  0  0  0
   -3.9991   -3.5454    0.0000 O   0  0  0  0  0  0  0  0  0  0  0  0
   -3.7320   -2.7649    0.0000 C   0  0  0  0  0  0  0  0  0  0  0  0
   -2.9224   -2.6060    0.0000 C   0  0  0  0  0  0  0  0  0  0  0  0
  1  2  1  0  0  0  0
  2  3  1  0  0  0  0
  2  4  1  0  0  0  0
  4  5  1  0  0  0  0
  5  6  1  0  0  0  0
  6  7  1  0  0  0  0
  7  8  1  0  0  0  0
  8  9  1  0  0  0  0
  9 10  1  0  0  0  0
  4 11  1  0  0  0  0
 11 12  1  0  0  0  0
 12 13  2  0  0  0  0
 13 14  1  0  0  0  0
 14 15  2  0  0  0  0
 15 16  1  0  0  0  0
 11 16  2  0  0  0  0
 16 17  1  0  0  0  0
 17 18  2  0  0  0  0
 18 19  1  0  0  0  0
 15 19  1  0  0  0  0
 19 20  1  0  0  0  0
 20 21  1  0  0  0  0
 21 22  1  0  0  0  0
 22 23  1  0  0  0  0
 21 24  1  0  0  0  0
 24 25  1  0  0  0  0
 25 26  1  0  0  0  0
 26 27  1  0  0  0  0
 27 28  1  0  0  0  0
 21 28  1  0  0  0  0
M  END
>  <Catalog ID>
Z2760969550

>  <Plate_ID>
2026983-X50-04

>  <Well>
B04

>  <V, µL>
50

>  <Conc, mM>
10

>  <Formula>
C19H31N5O4

>  <MW>
393.4805

>  <Purity>
100

>  <PO>
5A-64168

>  <MW_salt>
0

>  <Stereochem.data>
Achiral

>  <Geometric.isomer>
None

>  <Chemical name>
2-{2-[(9-{[4-(hydroxymethyl)oxan-4-yl]methyl}-9H-purin-6-yl)(propan-2-yl)amino]ethoxy}ethan-1-ol

>  <ClogP>
-0,163

>  <logS>
-1,609

>  <HBD>
2

>  <HBA>
8

>  <TPSA>
105,76

>  <RotBonds>
10

$$$$

  Mrv1925 04172511352D          

 29 31  0  0  0  0            999 V2000
   -0.7145   -3.7125    0.0000 C   0  0  0  0  0  0  0  0  0  0  0  0
   -0.7145   -2.8875    0.0000 O   0  0  0  0  0  0  0  0  0  0  0  0
    0.0000   -2.4750    0.0000 C   0  0  0  0  0  0  0  0  0  0  0  0
    0.0000   -1.6500    0.0000 C   0  0  0  0  0  0  0  0  0  0  0  0
    0.7145   -1.2375    0.0000 N   0  0  0  0  0  0  0  0  0  0  0  0
    1.4289   -1.6500    0.0000 C   0  0  0  0  0  0  0  0  0  0  0  0
    1.4289   -2.4750    0.0000 C   0  0  0  0  0  0  0  0  0  0  0  0
    0.7145   -2.8875    0.0000 O   0  0  0  0  0  0  0  0  0  0  0  0
    2.1434   -2.8875    0.0000 N   0  0  0  0  0  0  0  0  0  0  0  0
    2.8579   -2.4750    0.0000 C   0  0  0  0  0  0  0  0  0  0  0  0
    2.1434   -3.7125    0.0000 C   0  0  0  0  0  0  0  0  0  0  0  0
    0.7145   -0.4125    0.0000 C   0  0  0  0  0  0  0  0  0  0  0  0
    0.0000    0.0000    0.0000 N   0  0  0  0  0  0  0  0  0  0  0  0
    0.0000    0.8250    0.0000 C   0  0  0  0  0  0  0  0  0  0  0  0
    0.7145    1.2375    0.0000 N   0  0  0  0  0  0  0  0  0  0  0  0
    1.4289    0.8250    0.0000 C   0  0  0  0  0  0  0  0  0  0  0  0
    1.4289    0.0000    0.0000 C   0  0  0  0  0  0  0  0  0  0  0  0
    2.2136   -0.2549    0.0000 N   0  0  0  0  0  0  0  0  0  0  0  0
    2.6985    0.4125    0.0000 C   0  0  0  0  0  0  0  0  0  0  0  0
    2.2136    1.0799    0.0000 N   0  0  0  0  0  0  0  0  0  0  0  0
    2.4685    1.8646    0.0000 C   0  0  0  0  0  0  0  0  0  0  0  0
    3.2755    2.0361    0.0000 C   0  0  0  0  0  0  0  0  0  0  0  0
    3.3043    1.2116    0.0000 C   0  0  0  0  0  0  0  0  0  0  0  0
    4.0327    0.8243    0.0000 O   0  0  0  0  0  0  0  0  0  0  0  0
    2.9664    2.8010    0.0000 C   0  0  0  0  0  0  0  0  0  0  0  0
    3.4743    3.4511    0.0000 C   0  0  0  0  0  0  0  0  0  0  0  0
    4.2913    3.3363    0.0000 O   0  0  0  0  0  0  0  0  0  0  0  0
    4.6004    2.5714    0.0000 C   0  0  0  0  0  0  0  0  0  0  0  0
    4.0924    1.9213    0.0000 C   0  0  0  0  0  0  0  0  0  0  0  0
  1  2  1  0  0  0  0
  2  3  1  0  0  0  0
  3  4  1  0  0  0  0
  4  5  1  0  0  0  0
  5  6  1  0  0  0  0
  6  7  1  0  0  0  0
  7  8  2  0  0  0  0
  7  9  1  0  0  0  0
  9 10  1  0  0  0  0
  9 11  1  0  0  0  0
  5 12  1  0  0  0  0
 12 13  1  0  0  0  0
 13 14  2  0  0  0  0
 14 15  1  0  0  0  0
 15 16  2  0  0  0  0
 16 17  1  0  0  0  0
 12 17  2  0  0  0  0
 17 18  1  0  0  0  0
 18 19  2  0  0  0  0
 19 20  1  0  0  0  0
 16 20  1  0  0  0  0
 20 21  1  0  0  0  0
 21 22  1  0  0  0  0
 22 23  1  0  0  0  0
 23 24  1  0  0  0  0
 22 25  1  0  0  0  0
 25 26  1  0  0  0  0
 26 27  1  0  0  0  0
 27 28  1  0  0  0  0
 28 29  1  0  0  0  0
 22 29  1  0  0  0  0
M  END
>  <Catalog ID>
Z2760944204

>  <Plate_ID>
2026983-X50-04

>  <Well>
C04

>  <V, µL>
50

>  <Conc, mM>
10

>  <Formula>
C19H30N6O4

>  <MW>
406.4793

>  <Purity>
90.58

>  <PO>
5A-64168

>  <MW_salt>
0

>  <Stereochem.data>
Achiral

>  <Geometric.isomer>
None

>  <Chemical name>
2-[(9-{[4-(hydroxymethyl)oxan-4-yl]methyl}-9H-purin-6-yl)(2-methoxyethyl)amino]-N,N-dimethylacetamide

>  <ClogP>
-0,948

>  <logS>
-1,421

>  <HBD>
1

>  <HBA>
8

>  <TPSA>
105,84

>  <RotBonds>
9

$$$$

  Mrv1925 04172511352D          

 28 32  0  0  0  0            999 V2000
    3.4087    9.0592    0.0000 O   0  0  0  0  0  0  0  0  0  0  0  0
    3.8936    8.3917    0.0000 C   0  0  0  0  0  0  0  0  0  0  0  0
    4.7186    8.3917    0.0000 N   0  0  0  0  0  0  0  0  0  0  0  0
    4.9735    7.6071    0.0000 C   0  0  0  0  0  0  0  0  0  0  0  0
    5.7581    7.3522    0.0000 O   0  0  0  0  0  0  0  0  0  0  0  0
    4.3061    7.1222    0.0000 C   0  0  0  0  0  0  0  0  0  0  0  0
    5.0205    6.7097    0.0000 C   0  0  0  0  0  0  0  0  0  0  0  0
    5.0205    5.8847    0.0000 C   0  0  0  0  0  0  0  0  0  0  0  0
    4.3061    5.4722    0.0000 N   0  0  0  0  0  0  0  0  0  0  0  0
    3.5916    5.8847    0.0000 C   0  0  0  0  0  0  0  0  0  0  0  0
    3.5916    6.7097    0.0000 C   0  0  0  0  0  0  0  0  0  0  0  0
    4.3061    4.6472    0.0000 C   0  0  0  0  0  0  0  0  0  0  0  0
    5.0205    4.2347    0.0000 N   0  0  0  0  0  0  0  0  0  0  0  0
    5.0205    3.4097    0.0000 C   0  0  0  0  0  0  0  0  0  0  0  0
    4.3061    2.9972    0.0000 N   0  0  0  0  0  0  0  0  0  0  0  0
    3.5916    3.4097    0.0000 C   0  0  0  0  0  0  0  0  0  0  0  0
    3.5916    4.2347    0.0000 C   0  0  0  0  0  0  0  0  0  0  0  0
    2.8070    4.4896    0.0000 N   0  0  0  0  0  0  0  0  0  0  0  0
    2.3221    3.8222    0.0000 C   0  0  0  0  0  0  0  0  0  0  0  0
    2.8070    3.1548    0.0000 N   0  0  0  0  0  0  0  0  0  0  0  0
    2.5520    2.3701    0.0000 C   0  0  0  0  0  0  0  0  0  0  0  0
    1.7451    2.1986    0.0000 C   0  0  0  0  0  0  0  0  0  0  0  0
    1.5735    3.0056    0.0000 C   0  0  0  0  0  0  0  0  0  0  0  0
    0.7889    3.2605    0.0000 O   0  0  0  0  0  0  0  0  0  0  0  0
    1.9166    1.3916    0.0000 C   0  0  0  0  0  0  0  0  0  0  0  0
    1.1096    1.2201    0.0000 O   0  0  0  0  0  0  0  0  0  0  0  0
    0.9381    2.0271    0.0000 C   0  0  0  0  0  0  0  0  0  0  0  0
    3.6386    7.6071    0.0000 N   0  0  0  0  0  0  0  0  0  0  0  0
  1  2  2  0  0  0  0
  2  3  1  0  0  0  0
  3  4  1  0  0  0  0
  4  5  2  0  0  0  0
  4  6  1  0  0  0  0
  6  7  1  0  0  0  0
  7  8  1  0  0  0  0
  8  9  1  0  0  0  0
  9 10  1  0  0  0  0
 10 11  1  0  0  0  0
  6 11  1  0  0  0  0
  9 12  1  0  0  0  0
 12 13  1  0  0  0  0
 13 14  2  0  0  0  0
 14 15  1  0  0  0  0
 15 16  2  0  0  0  0
 16 17  1  0  0  0  0
 12 17  2  0  0  0  0
 17 18  1  0  0  0  0
 18 19  2  0  0  0  0
 19 20  1  0  0  0  0
 16 20  1  0  0  0  0
 20 21  1  0  0  0  0
 21 22  1  0  0  0  0
 22 23  1  0  0  0  0
 23 24  1  0  0  0  0
 22 25  1  0  0  0  0
 25 26  1  0  0  0  0
 26 27  1  0  0  0  0
 22 27  1  0  0  0  0
  6 28  1  0  0  0  0
  2 28  1  0  0  0  0
M  END
>  <Catalog ID>
Z2760935449

>  <Plate_ID>
2026983-X50-04

>  <Well>
D04

>  <V, µL>
50

>  <Conc, mM>
10

>  <Formula>
C17H21N7O4

>  <MW>
387.3931

>  <Purity>
97.06

>  <PO>
5A-64168

>  <MW_salt>
0

>  <Stereochem.data>
Achiral

>  <Geometric.isomer>
None

>  <Chemical name>
8-(9-{[3-(hydroxymethyl)oxetan-3-yl]methyl}-9H-purin-6-yl)-1,3,8-triazaspiro[4.5]decane-2,4-dione

>  <ClogP>
-3,256

>  <logS>
-2,064

>  <HBD>
3

>  <HBA>
8

>  <TPSA>
134,5

>  <RotBonds>
4

$$$$

  Mrv1925 04172511352D          

 27 31  0  0  0  0            999 V2000
    1.2811   -0.1019    0.0000 C   0  0  0  0  0  0  0  0  0  0  0  0
    2.1188    0.2772    0.0000 C   0  0  0  0  0  0  0  0  0  0  0  0
    2.8664    0.9031    0.0000 N   0  0  0  0  0  0  0  0  0  0  0  0
    3.6914    0.9031    0.0000 C   0  0  0  0  0  0  0  0  0  0  0  0
    4.2748    1.4865    0.0000 C   0  0  0  0  0  0  0  0  0  0  0  0
    4.2748    2.3115    0.0000 C   0  0  0  0  0  0  0  0  0  0  0  0
    3.6914    2.8948    0.0000 C   0  0  0  0  0  0  0  0  0  0  0  0
    2.8664    2.8948    0.0000 C   0  0  0  0  0  0  0  0  0  0  0  0
    2.2831    2.3115    0.0000 C   0  0  0  0  0  0  0  0  0  0  0  0
    2.2831    1.4865    0.0000 C   0  0  0  0  0  0  0  0  0  0  0  0
    3.2789    2.0625    0.0000 N   0  0  0  0  0  0  0  0  0  0  0  0
    3.2789    1.2375    0.0000 C   0  0  0  0  0  0  0  0  0  0  0  0
    3.9934    0.8250    0.0000 N   0  0  0  0  0  0  0  0  0  0  0  0
    3.9934    0.0000    0.0000 C   0  0  0  0  0  0  0  0  0  0  0  0
    3.2789   -0.4125    0.0000 N   0  0  0  0  0  0  0  0  0  0  0  0
    2.5645    0.0000    0.0000 C   0  0  0  0  0  0  0  0  0  0  0  0
    2.5645    0.8250    0.0000 C   0  0  0  0  0  0  0  0  0  0  0  0
    1.7798    1.0799    0.0000 N   0  0  0  0  0  0  0  0  0  0  0  0
    1.2949    0.4125    0.0000 C   0  0  0  0  0  0  0  0  0  0  0  0
    1.7798   -0.2549    0.0000 N   0  0  0  0  0  0  0  0  0  0  0  0
    1.6514   -1.1918    0.0000 C   0  0  0  0  0  0  0  0  0  0  0  0
    0.7179   -1.2111    0.0000 C   0  0  0  0  0  0  0  0  0  0  0  0
    0.7595   -2.1181    0.0000 C   0  0  0  0  0  0  0  0  0  0  0  0
    0.2577   -2.8163    0.0000 O   0  0  0  0  0  0  0  0  0  0  0  0
    0.6054   -0.3938    0.0000 C   0  0  0  0  0  0  0  0  0  0  0  0
   -0.2119   -0.5063    0.0000 O   0  0  0  0  0  0  0  0  0  0  0  0
   -0.0994   -1.3236    0.0000 C   0  0  0  0  0  0  0  0  0  0  0  0
  1  2  1  0  0  0  0
  2  3  1  0  0  0  0
  3  4  1  0  0  0  0
  4  5  1  0  0  0  0
  5  6  1  0  0  0  0
  6  7  1  0  0  0  0
  7  8  1  0  0  0  0
  8  9  1  0  0  0  0
  9 10  1  0  0  0  0
  3 10  1  0  0  0  0
  9 11  1  0  0  0  0
  6 11  1  0  0  0  0
 11 12  1  0  0  0  0
 12 13  1  0  0  0  0
 13 14  2  0  0  0  0
 14 15  1  0  0  0  0
 15 16  2  0  0  0  0
 16 17  1  0  0  0  0
 12 17  2  0  0  0  0
 17 18  1  0  0  0  0
 18 19  2  0  0  0  0
 19 20  1  0  0  0  0
 16 20  1  0  0  0  0
 20 21  1  0  0  0  0
 21 22  1  0  0  0  0
 22 23  1  0  0  0  0
 23 24  1  0  0  0  0
 22 25  1  0  0  0  0
 25 26  1  0  0  0  0
 26 27  1  0  0  0  0
 22 27  1  0  0  0  0
M  END
>  <Catalog ID>
Z2760952983

>  <Plate_ID>
2026983-X50-04

>  <Well>
E04

>  <V, µL>
50

>  <Conc, mM>
10

>  <Formula>
C19H28N6O2

>  <MW>
372.4646

>  <Purity>
98.76

>  <PO>
5A-64168

>  <MW_salt>
0

>  <Stereochem.data>
Diastereomeric mixture

>  <Geometric.isomer>
Unequal mixture of geometric isomers

>  <Chemical name>
{3-[(6-{3-ethyl-3,9-diazabicyclo[4.2.1]nonan-9-yl}-9H-purin-9-yl)methyl]oxetan-3-yl}methanol

>  <ClogP>
-0,765

>  <logS>
-2,352

>  <HBD>
1

>  <HBA>
7

>  <TPSA>
79,54

>  <RotBonds>
5

$$$$

  Mrv1925 04172511352D          

 27 30  0  0  0  0            999 V2000
    0.8646   -3.5628    0.0000 C   0  0  0  0  0  0  0  0  0  0  0  0
    0.1544   -3.1429    0.0000 C   0  0  0  0  0  0  0  0  0  0  0  0
   -0.6027   -3.4705    0.0000 O   0  0  0  0  0  0  0  0  0  0  0  0
   -1.1483   -2.8517    0.0000 C   0  0  0  0  0  0  0  0  0  0  0  0
   -0.7283   -2.1416    0.0000 C   0  0  0  0  0  0  0  0  0  0  0  0
    0.0768   -2.3215    0.0000 C   0  0  0  0  0  0  0  0  0  0  0  0
    0.3481   -1.5424    0.0000 O   0  0  0  0  0  0  0  0  0  0  0  0
    0.8838   -2.1500    0.0000 C   0  0  0  0  0  0  0  0  0  0  0  0
    1.1387   -1.3654    0.0000 N   0  0  0  0  0  0  0  0  0  0  0  0
    0.6538   -0.6979    0.0000 C   0  0  0  0  0  0  0  0  0  0  0  0
    1.1387   -0.0305    0.0000 N   0  0  0  0  0  0  0  0  0  0  0  0
    1.9233   -0.2854    0.0000 C   0  0  0  0  0  0  0  0  0  0  0  0
    2.6378    0.1271    0.0000 C   0  0  0  0  0  0  0  0  0  0  0  0
    3.3523   -0.2854    0.0000 N   0  0  0  0  0  0  0  0  0  0  0  0
    3.3523   -1.1104    0.0000 C   0  0  0  0  0  0  0  0  0  0  0  0
    2.6378   -1.5229    0.0000 N   0  0  0  0  0  0  0  0  0  0  0  0
    1.9233   -1.1104    0.0000 C   0  0  0  0  0  0  0  0  0  0  0  0
    2.6378    0.9521    0.0000 N   0  0  0  0  0  0  0  0  0  0  0  0
    1.9233    1.3646    0.0000 C   0  0  0  0  0  0  0  0  0  0  0  0
    3.3523    1.3646    0.0000 C   0  0  0  0  0  0  0  0  0  0  0  0
    3.3523    2.1896    0.0000 C   0  0  0  0  0  0  0  0  0  0  0  0
    2.6848    2.6745    0.0000 C   0  0  0  0  0  0  0  0  0  0  0  0
    2.9398    3.4591    0.0000 C   0  0  0  0  0  0  0  0  0  0  0  0
    3.7648    3.4591    0.0000 S   0  0  0  0  0  0  0  0  0  0  0  0
    3.6785    4.2796    0.0000 O   0  0  0  0  0  0  0  0  0  0  0  0
    4.5718    3.6306    0.0000 O   0  0  0  0  0  0  0  0  0  0  0  0
    4.0197    2.6745    0.0000 C   0  0  0  0  0  0  0  0  0  0  0  0
  1  2  1  0  0  0  0
  2  3  1  0  0  0  0
  3  4  1  0  0  0  0
  4  5  1  0  0  0  0
  5  6  1  0  0  0  0
  2  6  1  0  0  0  0
  6  7  1  0  0  0  0
  6  8  1  0  0  0  0
  8  9  1  0  0  0  0
  9 10  1  0  0  0  0
 10 11  2  0  0  0  0
 11 12  1  0  0  0  0
 12 13  1  0  0  0  0
 13 14  2  0  0  0  0
 14 15  1  0  0  0  0
 15 16  2  0  0  0  0
 16 17  1  0  0  0  0
 12 17  2  0  0  0  0
  9 17  1  0  0  0  0
 13 18  1  0  0  0  0
 18 19  1  0  0  0  0
 18 20  1  0  0  0  0
 20 21  1  0  0  0  0
 21 22  1  0  0  0  0
 22 23  1  0  0  0  0
 23 24  1  0  0  0  0
 24 25  2  0  0  0  0
 24 26  2  0  0  0  0
 24 27  1  0  0  0  0
 21 27  1  0  0  0  0
M  END
>  <Catalog ID>
Z2760948318

>  <Plate_ID>
2026983-X50-04

>  <Well>
F04

>  <V, µL>
50

>  <Conc, mM>
10

>  <Formula>
C17H25N5O4S

>  <MW>
395.4765

>  <Purity>
100

>  <PO>
5A-64168

>  <MW_salt>
0

>  <Stereochem.data>
Diastereomeric mixture

>  <Geometric.isomer>
None

>  <Chemical name>
3-[({9-[(3-hydroxy-2-methyloxolan-3-yl)methyl]-9H-purin-6-yl}(methyl)amino)methyl]-1lambda6-thiolane-1,1-dione

>  <ClogP>
-1,544

>  <logS>
-2,601

>  <HBD>
1

>  <HBA>
8

>  <TPSA>
110,44

>  <RotBonds>
5

$$$$

  Mrv1925 04172511352D          

 26 29  0  0  0  0            999 V2000
    4.7079    1.2375    0.0000 C   0  0  0  0  0  0  0  0  0  0  0  0
    4.7079    2.0625    0.0000 C   0  0  0  0  0  0  0  0  0  0  0  0
    5.4223    2.4750    0.0000 C   0  0  0  0  0  0  0  0  0  0  0  0
    3.9934    2.4750    0.0000 C   0  0  0  0  0  0  0  0  0  0  0  0
    3.9934    3.3000    0.0000 C   0  0  0  0  0  0  0  0  0  0  0  0
    4.7079    3.7125    0.0000 O   0  0  0  0  0  0  0  0  0  0  0  0
    3.2789    3.7125    0.0000 N   0  0  0  0  0  0  0  0  0  0  0  0
    2.5645    3.3000    0.0000 C   0  0  0  0  0  0  0  0  0  0  0  0
    2.5645    2.4750    0.0000 C   0  0  0  0  0  0  0  0  0  0  0  0
    3.2789    2.0625    0.0000 N   0  0  0  0  0  0  0  0  0  0  0  0
    3.2789    1.2375    0.0000 C   0  0  0  0  0  0  0  0  0  0  0  0
    3.9934    0.8250    0.0000 N   0  0  0  0  0  0  0  0  0  0  0  0
    3.9934    0.0000    0.0000 C   0  0  0  0  0  0  0  0  0  0  0  0
    3.2789   -0.4125    0.0000 N   0  0  0  0  0  0  0  0  0  0  0  0
    2.5645    0.0000    0.0000 C   0  0  0  0  0  0  0  0  0  0  0  0
    2.5645    0.8250    0.0000 C   0  0  0  0  0  0  0  0  0  0  0  0
    1.7798    1.0799    0.0000 N   0  0  0  0  0  0  0  0  0  0  0  0
    1.2949    0.4125    0.0000 C   0  0  0  0  0  0  0  0  0  0  0  0
    1.7798   -0.2549    0.0000 N   0  0  0  0  0  0  0  0  0  0  0  0
    1.5249   -1.0396    0.0000 C   0  0  0  0  0  0  0  0  0  0  0  0
    2.0769   -1.6527    0.0000 C   0  0  0  0  0  0  0  0  0  0  0  0
    1.4095   -2.1376    0.0000 O   0  0  0  0  0  0  0  0  0  0  0  0
    2.6290   -1.0396    0.0000 C   0  0  0  0  0  0  0  0  0  0  0  0
    3.3826   -1.3751    0.0000 C   0  0  0  0  0  0  0  0  0  0  0  0
    3.2964   -2.1956    0.0000 O   0  0  0  0  0  0  0  0  0  0  0  0
    2.4894   -2.3671    0.0000 C   0  0  0  0  0  0  0  0  0  0  0  0
  1  2  1  0  0  0  0
  2  3  1  0  0  0  0
  2  4  1  0  0  0  0
  4  5  1  0  0  0  0
  5  6  2  0  0  0  0
  5  7  1  0  0  0  0
  7  8  1  0  0  0  0
  8  9  1  0  0  0  0
  9 10  1  0  0  0  0
  4 10  1  0  0  0  0
 10 11  1  0  0  0  0
 11 12  1  0  0  0  0
 12 13  2  0  0  0  0
 13 14  1  0  0  0  0
 14 15  2  0  0  0  0
 15 16  1  0  0  0  0
 11 16  2  0  0  0  0
 16 17  1  0  0  0  0
 17 18  2  0  0  0  0
 18 19  1  0  0  0  0
 15 19  1  0  0  0  0
 19 20  1  0  0  0  0
 20 21  1  0  0  0  0
 21 22  1  0  0  0  0
 21 23  1  0  0  0  0
 23 24  1  0  0  0  0
 24 25  1  0  0  0  0
 25 26  1  0  0  0  0
 21 26  1  0  0  0  0
M  END
>  <Catalog ID>
Z2760943713

>  <Plate_ID>
2026983-X50-04

>  <Well>
G04

>  <V, µL>
50

>  <Conc, mM>
10

>  <Formula>
C17H24N6O3

>  <MW>
360.4109

>  <Purity>
100

>  <PO>
5A-64168

>  <MW_salt>
0

>  <Stereochem.data>
Diastereomeric mixture

>  <Geometric.isomer>
None

>  <Chemical name>
4-{9-[(3-hydroxyoxolan-3-yl)methyl]-9H-purin-6-yl}-3-(propan-2-yl)piperazin-2-one

>  <ClogP>
-0,049

>  <logS>
-3,364

>  <HBD>
2

>  <HBA>
7

>  <TPSA>
105,4

>  <RotBonds>
4

$$$$

  Mrv1925 04172511352D          

 28 32  0  0  0  0            999 V2000
    1.6553    1.4855    0.0000 O   0  0  0  0  0  0  0  0  0  0  0  0
    1.8269    2.2925    0.0000 C   0  0  0  0  0  0  0  0  0  0  0  0
    1.2138    2.8445    0.0000 N   0  0  0  0  0  0  0  0  0  0  0  0
    0.4292    2.5896    0.0000 C   0  0  0  0  0  0  0  0  0  0  0  0
   -0.1229    1.9765    0.0000 C   0  0  0  0  0  0  0  0  0  0  0  0
   -0.3778    2.7611    0.0000 C   0  0  0  0  0  0  0  0  0  0  0  0
    2.6115    2.5474    0.0000 C   0  0  0  0  0  0  0  0  0  0  0  0
    2.8664    3.3320    0.0000 C   0  0  0  0  0  0  0  0  0  0  0  0
    3.6914    3.3320    0.0000 C   0  0  0  0  0  0  0  0  0  0  0  0
    3.9464    2.5474    0.0000 C   0  0  0  0  0  0  0  0  0  0  0  0
    3.2789    2.0625    0.0000 N   0  0  0  0  0  0  0  0  0  0  0  0
    3.2789    1.2375    0.0000 C   0  0  0  0  0  0  0  0  0  0  0  0
    3.9934    0.8250    0.0000 N   0  0  0  0  0  0  0  0  0  0  0  0
    3.9934    0.0000    0.0000 C   0  0  0  0  0  0  0  0  0  0  0  0
    3.2789   -0.4125    0.0000 N   0  0  0  0  0  0  0  0  0  0  0  0
    2.5645    0.0000    0.0000 C   0  0  0  0  0  0  0  0  0  0  0  0
    2.5645    0.8250    0.0000 C   0  0  0  0  0  0  0  0  0  0  0  0
    1.7798    1.0799    0.0000 N   0  0  0  0  0  0  0  0  0  0  0  0
    1.2949    0.4125    0.0000 C   0  0  0  0  0  0  0  0  0  0  0  0
    1.7798   -0.2549    0.0000 N   0  0  0  0  0  0  0  0  0  0  0  0
    1.5249   -1.0396    0.0000 C   0  0  0  0  0  0  0  0  0  0  0  0
    2.0769   -1.6527    0.0000 C   0  0  0  0  0  0  0  0  0  0  0  0
    2.8839   -1.4811    0.0000 O   0  0  0  0  0  0  0  0  0  0  0  0
    1.8220   -2.4373    0.0000 C   0  0  0  0  0  0  0  0  0  0  0  0
    2.3069   -3.1047    0.0000 C   0  0  0  0  0  0  0  0  0  0  0  0
    1.8220   -3.7722    0.0000 C   0  0  0  0  0  0  0  0  0  0  0  0
    1.0374   -3.5172    0.0000 C   0  0  0  0  0  0  0  0  0  0  0  0
    1.0374   -2.6922    0.0000 O   0  0  0  0  0  0  0  0  0  0  0  0
  1  2  2  0  0  0  0
  2  3  1  0  0  0  0
  3  4  1  0  0  0  0
  4  5  1  0  0  0  0
  5  6  1  0  0  0  0
  4  6  1  0  0  0  0
  2  7  1  0  0  0  0
  7  8  1  0  0  0  0
  8  9  1  0  0  0  0
  9 10  1  0  0  0  0
 10 11  1  0  0  0  0
  7 11  1  0  0  0  0
 11 12  1  0  0  0  0
 12 13  1  0  0  0  0
 13 14  2  0  0  0  0
 14 15  1  0  0  0  0
 15 16  2  0  0  0  0
 16 17  1  0  0  0  0
 12 17  2  0  0  0  0
 17 18  1  0  0  0  0
 18 19  2  0  0  0  0
 19 20  1  0  0  0  0
 16 20  1  0  0  0  0
 20 21  1  0  0  0  0
 21 22  1  0  0  0  0
 22 23  1  0  0  0  0
 22 24  1  0  0  0  0
 24 25  1  0  0  0  0
 25 26  1  0  0  0  0
 26 27  1  0  0  0  0
 27 28  1  0  0  0  0
 24 28  1  0  0  0  0
M  END
>  <Catalog ID>
Z2760938912

>  <Plate_ID>
2026983-X50-04

>  <Well>
H04

>  <V, µL>
50

>  <Conc, mM>
10

>  <Formula>
C19H26N6O3

>  <MW>
386.4481

>  <Purity>
95.08

>  <PO>
5A-64168

>  <MW_salt>
0

>  <Stereochem.data>
Diastereomeric mixture

>  <Geometric.isomer>
None

>  <Chemical name>
N-cyclopropyl-1-{9-[2-hydroxy-2-(oxolan-2-yl)ethyl]-9H-purin-6-yl}pyrrolidine-2-carboxamide

>  <ClogP>
-0,277

>  <logS>
-3,026

>  <HBD>
2

>  <HBA>
7

>  <TPSA>
105,4

>  <RotBonds>
6

$$$$

  Mrv1925 04172511352D          

 28 32  0  0  0  0            999 V2000
    5.6331    3.2050    0.0000 O   0  0  0  0  0  0  0  0  0  0  0  0
    5.4615    2.3981    0.0000 C   0  0  0  0  0  0  0  0  0  0  0  0
    6.0136    1.7850    0.0000 C   0  0  0  0  0  0  0  0  0  0  0  0
    5.6011    1.0705    0.0000 C   0  0  0  0  0  0  0  0  0  0  0  0
    4.7941    1.2420    0.0000 C   0  0  0  0  0  0  0  0  0  0  0  0
    4.7079    2.0625    0.0000 C   0  0  0  0  0  0  0  0  0  0  0  0
    3.9934    2.4750    0.0000 C   0  0  0  0  0  0  0  0  0  0  0  0
    3.9934    3.3000    0.0000 C   0  0  0  0  0  0  0  0  0  0  0  0
    3.2789    3.7125    0.0000 O   0  0  0  0  0  0  0  0  0  0  0  0
    2.5645    3.3000    0.0000 C   0  0  0  0  0  0  0  0  0  0  0  0
    2.5645    2.4750    0.0000 C   0  0  0  0  0  0  0  0  0  0  0  0
    3.2789    2.0625    0.0000 N   0  0  0  0  0  0  0  0  0  0  0  0
    3.2789    1.2375    0.0000 C   0  0  0  0  0  0  0  0  0  0  0  0
    3.9934    0.8250    0.0000 N   0  0  0  0  0  0  0  0  0  0  0  0
    3.9934    0.0000    0.0000 C   0  0  0  0  0  0  0  0  0  0  0  0
    3.2789   -0.4125    0.0000 N   0  0  0  0  0  0  0  0  0  0  0  0
    2.5645    0.0000    0.0000 C   0  0  0  0  0  0  0  0  0  0  0  0
    2.5645    0.8250    0.0000 C   0  0  0  0  0  0  0  0  0  0  0  0
    1.7798    1.0799    0.0000 N   0  0  0  0  0  0  0  0  0  0  0  0
    1.2949    0.4125    0.0000 C   0  0  0  0  0  0  0  0  0  0  0  0
    1.7798   -0.2549    0.0000 N   0  0  0  0  0  0  0  0  0  0  0  0
    1.5249   -1.0396    0.0000 C   0  0  0  0  0  0  0  0  0  0  0  0
    2.0769   -1.6527    0.0000 C   0  0  0  0  0  0  0  0  0  0  0  0
    1.4095   -2.1376    0.0000 O   0  0  0  0  0  0  0  0  0  0  0  0
    2.6290   -1.0396    0.0000 C   0  0  0  0  0  0  0  0  0  0  0  0
    3.3826   -1.3751    0.0000 C   0  0  0  0  0  0  0  0  0  0  0  0
    3.2964   -2.1956    0.0000 O   0  0  0  0  0  0  0  0  0  0  0  0
    2.4894   -2.3671    0.0000 C   0  0  0  0  0  0  0  0  0  0  0  0
  1  2  1  0  0  0  0
  2  3  1  0  0  0  0
  3  4  1  0  0  0  0
  4  5  1  0  0  0  0
  5  6  1  0  0  0  0
  2  6  1  0  0  0  0
  6  7  1  0  0  0  0
  7  8  1  0  0  0  0
  8  9  1  0  0  0  0
  9 10  1  0  0  0  0
 10 11  1  0  0  0  0
 11 12  1  0  0  0  0
  7 12  1  0  0  0  0
 12 13  1  0  0  0  0
 13 14  1  0  0  0  0
 14 15  2  0  0  0  0
 15 16  1  0  0  0  0
 16 17  2  0  0  0  0
 17 18  1  0  0  0  0
 13 18  2  0  0  0  0
 18 19  1  0  0  0  0
 19 20  2  0  0  0  0
 20 21  1  0  0  0  0
 17 21  1  0  0  0  0
 21 22  1  0  0  0  0
 22 23  1  0  0  0  0
 23 24  1  0  0  0  0
 23 25  1  0  0  0  0
 25 26  1  0  0  0  0
 26 27  1  0  0  0  0
 27 28  1  0  0  0  0
 23 28  1  0  0  0  0
M  END
>  <Catalog ID>
Z2760969804

>  <Plate_ID>
2026983-X50-04

>  <Well>
A05

>  <V, µL>
50

>  <Conc, mM>
10

>  <Formula>
C19H27N5O4

>  <MW>
389.4488

>  <Purity>
100

>  <PO>
5A-64168

>  <MW_salt>
0

>  <Stereochem.data>
Diastereomeric mixture

>  <Geometric.isomer>
None

>  <Chemical name>
3-({6-[3-(2-hydroxycyclopentyl)morpholin-4-yl]-9H-purin-9-yl}methyl)oxolan-3-ol

>  <ClogP>
-1,18

>  <logS>
-3,304

>  <HBD>
2

>  <HBA>
8

>  <TPSA>
105,76

>  <RotBonds>
4

$$$$

  Mrv1925 04172511352D          

 28 32  0  0  0  0            999 V2000
    0.0000   -1.6500    0.0000 O   0  0  0  0  0  0  0  0  0  0  0  0
    0.7145   -1.2375    0.0000 C   0  0  0  0  0  0  0  0  0  0  0  0
    0.7145   -0.4125    0.0000 C   0  0  0  0  0  0  0  0  0  0  0  0
    1.4289    0.0000    0.0000 N   0  0  0  0  0  0  0  0  0  0  0  0
    1.4289    0.8250    0.0000 C   0  0  0  0  0  0  0  0  0  0  0  0
    0.7145    1.2375    0.0000 N   0  0  0  0  0  0  0  0  0  0  0  0
    0.7145    2.0625    0.0000 C   0  0  0  0  0  0  0  0  0  0  0  0
    1.4289    2.4750    0.0000 N   0  0  0  0  0  0  0  0  0  0  0  0
    2.1434    2.0625    0.0000 C   0  0  0  0  0  0  0  0  0  0  0  0
    2.1434    1.2375    0.0000 C   0  0  0  0  0  0  0  0  0  0  0  0
    2.9280    0.9826    0.0000 N   0  0  0  0  0  0  0  0  0  0  0  0
    3.4130    1.6500    0.0000 C   0  0  0  0  0  0  0  0  0  0  0  0
    2.9280    2.3174    0.0000 N   0  0  0  0  0  0  0  0  0  0  0  0
    3.1830    3.1021    0.0000 C   0  0  0  0  0  0  0  0  0  0  0  0
    3.9899    3.2736    0.0000 C   0  0  0  0  0  0  0  0  0  0  0  0
    4.0187    2.4491    0.0000 O   0  0  0  0  0  0  0  0  0  0  0  0
    3.6809    4.0385    0.0000 C   0  0  0  0  0  0  0  0  0  0  0  0
    4.1888    4.6886    0.0000 C   0  0  0  0  0  0  0  0  0  0  0  0
    5.0058    4.5738    0.0000 O   0  0  0  0  0  0  0  0  0  0  0  0
    5.3148    3.8089    0.0000 C   0  0  0  0  0  0  0  0  0  0  0  0
    4.8069    3.1588    0.0000 C   0  0  0  0  0  0  0  0  0  0  0  0
    2.1434   -0.4125    0.0000 C   0  0  0  0  0  0  0  0  0  0  0  0
    2.8579    0.0000    0.0000 C   0  0  0  0  0  0  0  0  0  0  0  0
    3.5724   -0.4125    0.0000 C   0  0  0  0  0  0  0  0  0  0  0  0
    3.5724   -1.2375    0.0000 C   0  0  0  0  0  0  0  0  0  0  0  0
    2.8579   -1.6500    0.0000 C   0  0  0  0  0  0  0  0  0  0  0  0
    2.1434   -1.2375    0.0000 C   0  0  0  0  0  0  0  0  0  0  0  0
    1.4289   -1.6500    0.0000 N   0  0  0  0  0  0  0  0  0  0  0  0
  1  2  2  0  0  0  0
  2  3  1  0  0  0  0
  3  4  1  0  0  0  0
  4  5  1  0  0  0  0
  5  6  1  0  0  0  0
  6  7  2  0  0  0  0
  7  8  1  0  0  0  0
  8  9  2  0  0  0  0
  9 10  1  0  0  0  0
  5 10  2  0  0  0  0
 10 11  1  0  0  0  0
 11 12  2  0  0  0  0
 12 13  1  0  0  0  0
  9 13  1  0  0  0  0
 13 14  1  0  0  0  0
 14 15  1  0  0  0  0
 15 16  1  0  0  0  0
 15 17  1  0  0  0  0
 17 18  1  0  0  0  0
 18 19  1  0  0  0  0
 19 20  1  0  0  0  0
 20 21  1  0  0  0  0
 15 21  1  0  0  0  0
  4 22  1  0  0  0  0
 22 23  1  0  0  0  0
 23 24  1  0  0  0  0
 24 25  1  0  0  0  0
 25 26  1  0  0  0  0
 26 27  1  0  0  0  0
 22 27  1  0  0  0  0
 27 28  1  0  0  0  0
  2 28  1  0  0  0  0
M  END
>  <Catalog ID>
Z2760955354

>  <Plate_ID>
2026983-X50-04

>  <Well>
B05

>  <V, µL>
50

>  <Conc, mM>
10

>  <Formula>
C19H26N6O3

>  <MW>
386.4481

>  <Purity>
96.43

>  <PO>
5A-64168

>  <MW_salt>
0

>  <Stereochem.data>
Diastereomeric mixture

>  <Geometric.isomer>
Unknown

>  <Chemical name>
4-{9-[(4-hydroxyoxan-4-yl)methyl]-9H-purin-6-yl}-decahydroquinoxalin-2-one

>  <ClogP>
-0,414

>  <logS>
-3,111

>  <HBD>
2

>  <HBA>
7

>  <TPSA>
105,4

>  <RotBonds>
3

$$$$

  Mrv1925 04172511352D          

 29 33  0  0  0  0            999 V2000
    4.3997    2.6603    0.0000 C   0  0  0  0  0  0  0  0  0  0  0  0
    5.1843    2.9152    0.0000 N   0  0  0  0  0  0  0  0  0  0  0  0
    5.4393    3.6998    0.0000 C   0  0  0  0  0  0  0  0  0  0  0  0
    4.9544    4.3673    0.0000 O   0  0  0  0  0  0  0  0  0  0  0  0
    6.2643    3.6998    0.0000 N   0  0  0  0  0  0  0  0  0  0  0  0
    6.5192    2.9152    0.0000 C   0  0  0  0  0  0  0  0  0  0  0  0
    5.8518    2.4303    0.0000 C   0  0  0  0  0  0  0  0  0  0  0  0
    6.5662    2.0178    0.0000 C   0  0  0  0  0  0  0  0  0  0  0  0
    6.5662    1.1928    0.0000 C   0  0  0  0  0  0  0  0  0  0  0  0
    5.8518    0.7803    0.0000 N   0  0  0  0  0  0  0  0  0  0  0  0
    5.1373    1.1928    0.0000 C   0  0  0  0  0  0  0  0  0  0  0  0
    5.1373    2.0178    0.0000 C   0  0  0  0  0  0  0  0  0  0  0  0
    5.8518   -0.0447    0.0000 C   0  0  0  0  0  0  0  0  0  0  0  0
    6.5662   -0.4572    0.0000 N   0  0  0  0  0  0  0  0  0  0  0  0
    6.5662   -1.2822    0.0000 C   0  0  0  0  0  0  0  0  0  0  0  0
    5.8518   -1.6947    0.0000 N   0  0  0  0  0  0  0  0  0  0  0  0
    5.1373   -1.2822    0.0000 C   0  0  0  0  0  0  0  0  0  0  0  0
    5.1373   -0.4572    0.0000 C   0  0  0  0  0  0  0  0  0  0  0  0
    4.3527   -0.2023    0.0000 N   0  0  0  0  0  0  0  0  0  0  0  0
    3.8678   -0.8697    0.0000 C   0  0  0  0  0  0  0  0  0  0  0  0
    4.3527   -1.5372    0.0000 N   0  0  0  0  0  0  0  0  0  0  0  0
    4.0977   -2.3218    0.0000 C   0  0  0  0  0  0  0  0  0  0  0  0
    4.6498   -2.9349    0.0000 C   0  0  0  0  0  0  0  0  0  0  0  0
    3.9501   -3.3721    0.0000 O   0  0  0  0  0  0  0  0  0  0  0  0
    5.1577   -2.2848    0.0000 C   0  0  0  0  0  0  0  0  0  0  0  0
    5.9747   -2.3996    0.0000 C   0  0  0  0  0  0  0  0  0  0  0  0
    6.2837   -3.1645    0.0000 O   0  0  0  0  0  0  0  0  0  0  0  0
    5.7758   -3.8146    0.0000 C   0  0  0  0  0  0  0  0  0  0  0  0
    4.9588   -3.6998    0.0000 C   0  0  0  0  0  0  0  0  0  0  0  0
  1  2  1  0  0  0  0
  2  3  1  0  0  0  0
  3  4  2  0  0  0  0
  3  5  1  0  0  0  0
  5  6  1  0  0  0  0
  6  7  1  0  0  0  0
  2  7  1  0  0  0  0
  7  8  1  0  0  0  0
  8  9  1  0  0  0  0
  9 10  1  0  0  0  0
 10 11  1  0  0  0  0
 11 12  1  0  0  0  0
  7 12  1  0  0  0  0
 10 13  1  0  0  0  0
 13 14  1  0  0  0  0
 14 15  2  0  0  0  0
 15 16  1  0  0  0  0
 16 17  2  0  0  0  0
 17 18  1  0  0  0  0
 13 18  2  0  0  0  0
 18 19  1  0  0  0  0
 19 20  2  0  0  0  0
 20 21  1  0  0  0  0
 17 21  1  0  0  0  0
 21 22  1  0  0  0  0
 22 23  1  0  0  0  0
 23 24  1  0  0  0  0
 23 25  1  0  0  0  0
 25 26  1  0  0  0  0
 26 27  1  0  0  0  0
 27 28  1  0  0  0  0
 28 29  1  0  0  0  0
 23 29  1  0  0  0  0
M  END
>  <Catalog ID>
Z2760976396

>  <Plate_ID>
2026983-X50-04

>  <Well>
C05

>  <V, µL>
50

>  <Conc, mM>
10

>  <Formula>
C19H27N7O3

>  <MW>
401.4628

>  <Purity>
95.93

>  <PO>
5A-64168

>  <MW_salt>
0

>  <Stereochem.data>
Achiral

>  <Geometric.isomer>
None

>  <Chemical name>
8-{9-[(4-hydroxyoxan-4-yl)methyl]-9H-purin-6-yl}-1-methyl-1,3,8-triazaspiro[4.5]decan-2-one

>  <ClogP>
-2,311

>  <logS>
-3,209

>  <HBD>
2

>  <HBA>
7

>  <TPSA>
108,64

>  <RotBonds>
3

$$$$

  Mrv1925 04172511352D          

 29 32  0  0  0  0            999 V2000
   -1.5395   -2.8875    0.0000 N   0  0  0  0  0  0  0  0  0  0  0  0
   -0.7145   -2.8875    0.0000 C   0  0  0  0  0  0  0  0  0  0  0  0
    0.1105   -2.8875    0.0000 C   0  0  0  0  0  0  0  0  0  0  0  0
    0.5230   -2.1730    0.0000 C   0  0  0  0  0  0  0  0  0  0  0  0
    1.3480   -2.1730    0.0000 N   0  0  0  0  0  0  0  0  0  0  0  0
    1.7605   -2.8875    0.0000 C   0  0  0  0  0  0  0  0  0  0  0  0
    1.3480   -3.6020    0.0000 C   0  0  0  0  0  0  0  0  0  0  0  0
    1.6836   -4.3556    0.0000 C   0  0  0  0  0  0  0  0  0  0  0  0
    1.0705   -4.9077    0.0000 C   0  0  0  0  0  0  0  0  0  0  0  0
    0.3560   -4.4952    0.0000 O   0  0  0  0  0  0  0  0  0  0  0  0
    0.5275   -3.6882    0.0000 C   0  0  0  0  0  0  0  0  0  0  0  0
    1.7605   -1.4586    0.0000 C   0  0  0  0  0  0  0  0  0  0  0  0
    1.3480   -0.7441    0.0000 N   0  0  0  0  0  0  0  0  0  0  0  0
    1.7605   -0.0296    0.0000 C   0  0  0  0  0  0  0  0  0  0  0  0
    2.5855   -0.0296    0.0000 N   0  0  0  0  0  0  0  0  0  0  0  0
    2.9980   -0.7441    0.0000 C   0  0  0  0  0  0  0  0  0  0  0  0
    2.5855   -1.4586    0.0000 C   0  0  0  0  0  0  0  0  0  0  0  0
    3.1376   -2.0717    0.0000 N   0  0  0  0  0  0  0  0  0  0  0  0
    3.8912   -1.7361    0.0000 C   0  0  0  0  0  0  0  0  0  0  0  0
    3.8050   -0.9156    0.0000 N   0  0  0  0  0  0  0  0  0  0  0  0
    4.4181   -0.3636    0.0000 C   0  0  0  0  0  0  0  0  0  0  0  0
    4.2466    0.4434    0.0000 C   0  0  0  0  0  0  0  0  0  0  0  0
    5.0711    0.4722    0.0000 C   0  0  0  0  0  0  0  0  0  0  0  0
    5.4584    1.2006    0.0000 O   0  0  0  0  0  0  0  0  0  0  0  0
    3.4816    0.1343    0.0000 C   0  0  0  0  0  0  0  0  0  0  0  0
    2.8315    0.6423    0.0000 C   0  0  0  0  0  0  0  0  0  0  0  0
    2.9464    1.4592    0.0000 O   0  0  0  0  0  0  0  0  0  0  0  0
    3.7113    1.7683    0.0000 C   0  0  0  0  0  0  0  0  0  0  0  0
    4.3614    1.2604    0.0000 C   0  0  0  0  0  0  0  0  0  0  0  0
  1  2  3  0  0  0  0
  2  3  1  0  0  0  0
  3  4  1  0  0  0  0
  4  5  1  0  0  0  0
  5  6  1  0  0  0  0
  6  7  1  0  0  0  0
  7  8  1  0  0  0  0
  8  9  1  0  0  0  0
  9 10  1  0  0  0  0
 10 11  1  0  0  0  0
  7 11  1  0  0  0  0
  5 12  1  0  0  0  0
 12 13  1  0  0  0  0
 13 14  2  0  0  0  0
 14 15  1  0  0  0  0
 15 16  2  0  0  0  0
 16 17  1  0  0  0  0
 12 17  2  0  0  0  0
 17 18  1  0  0  0  0
 18 19  2  0  0  0  0
 19 20  1  0  0  0  0
 16 20  1  0  0  0  0
 20 21  1  0  0  0  0
 21 22  1  0  0  0  0
 22 23  1  0  0  0  0
 23 24  1  0  0  0  0
 22 25  1  0  0  0  0
 25 26  1  0  0  0  0
 26 27  1  0  0  0  0
 27 28  1  0  0  0  0
 28 29  1  0  0  0  0
 22 29  1  0  0  0  0
M  END
>  <Catalog ID>
Z2760944761

>  <Plate_ID>
2026983-X50-04

>  <Well>
D05

>  <V, µL>
50

>  <Conc, mM>
10

>  <Formula>
C20H28N6O3

>  <MW>
400.4747

>  <Purity>
100

>  <PO>
5A-64168

>  <MW_salt>
0

>  <Stereochem.data>
Racemic or presumed racemic or meso

>  <Geometric.isomer>
None

>  <Chemical name>
3-[(9-{[4-(hydroxymethyl)oxan-4-yl]methyl}-9H-purin-6-yl)[(oxolan-3-yl)methyl]amino]propanenitrile

>  <ClogP>
-0,969

>  <logS>
-1,885

>  <HBD>
1

>  <HBA>
8

>  <TPSA>
109,32

>  <RotBonds>
8

$$$$

  Mrv1925 04172511352D          

 24 27  0  0  1  0            999 V2000
    1.2138    2.8445    0.0000 O   0  0  0  0  0  0  0  0  0  0  0  0
    1.8269    2.2925    0.0000 C   0  0  0  0  0  0  0  0  0  0  0  0
    2.6115    2.5474    0.0000 C   0  0  2  0  0  0  0  0  0  0  0  0
    2.8664    3.3320    0.0000 C   0  0  0  0  0  0  0  0  0  0  0  0
    3.6914    3.3320    0.0000 C   0  0  2  0  0  0  0  0  0  0  0  0
    4.1764    3.9995    0.0000 F   0  0  0  0  0  0  0  0  0  0  0  0
    3.9464    2.5474    0.0000 C   0  0  0  0  0  0  0  0  0  0  0  0
    3.2789    2.0625    0.0000 N   0  0  0  0  0  0  0  0  0  0  0  0
    3.2789    1.2375    0.0000 C   0  0  0  0  0  0  0  0  0  0  0  0
    3.9934    0.8250    0.0000 N   0  0  0  0  0  0  0  0  0  0  0  0
    3.9934    0.0000    0.0000 C   0  0  0  0  0  0  0  0  0  0  0  0
    3.2789   -0.4125    0.0000 N   0  0  0  0  0  0  0  0  0  0  0  0
    2.5645    0.0000    0.0000 C   0  0  0  0  0  0  0  0  0  0  0  0
    2.5645    0.8250    0.0000 C   0  0  0  0  0  0  0  0  0  0  0  0
    1.7798    1.0799    0.0000 N   0  0  0  0  0  0  0  0  0  0  0  0
    1.2949    0.4125    0.0000 C   0  0  0  0  0  0  0  0  0  0  0  0
    1.7798   -0.2549    0.0000 N   0  0  0  0  0  0  0  0  0  0  0  0
    1.5249   -1.0396    0.0000 C   0  0  0  0  0  0  0  0  0  0  0  0
    2.0769   -1.6527    0.0000 C   0  0  0  0  0  0  0  0  0  0  0  0
    1.4095   -2.1376    0.0000 O   0  0  0  0  0  0  0  0  0  0  0  0
    2.6290   -1.0396    0.0000 C   0  0  0  0  0  0  0  0  0  0  0  0
    3.3826   -1.3751    0.0000 C   0  0  0  0  0  0  0  0  0  0  0  0
    3.2964   -2.1956    0.0000 O   0  0  0  0  0  0  0  0  0  0  0  0
    2.4894   -2.3671    0.0000 C   0  0  0  0  0  0  0  0  0  0  0  0
  1  2  1  0  0  0  0
  3  2  1  6  0  0  0
  3  4  1  0  0  0  0
  5  4  1  0  0  0  0
  5  6  1  6  0  0  0
  5  7  1  0  0  0  0
  7  8  1  0  0  0  0
  3  8  1  0  0  0  0
  8  9  1  0  0  0  0
  9 10  1  0  0  0  0
 10 11  2  0  0  0  0
 11 12  1  0  0  0  0
 12 13  2  0  0  0  0
 13 14  1  0  0  0  0
  9 14  2  0  0  0  0
 14 15  1  0  0  0  0
 15 16  2  0  0  0  0
 16 17  1  0  0  0  0
 13 17  1  0  0  0  0
 17 18  1  0  0  0  0
 18 19  1  0  0  0  0
 19 20  1  0  0  0  0
 19 21  1  0  0  0  0
 21 22  1  0  0  0  0
 22 23  1  0  0  0  0
 23 24  1  0  0  0  0
 19 24  1  0  0  0  0
M  END
>  <Catalog ID>
Z2760969696

>  <Plate_ID>
2026983-X50-04

>  <Well>
E05

>  <V, µL>
50

>  <Conc, mM>
10

>  <Formula>
C15H20FN5O3

>  <MW>
337.3494

>  <Purity>
96.01

>  <PO>
5A-64168

>  <MW_salt>
0

>  <Stereochem.data>
Diastereomeric mixture

>  <Geometric.isomer>
None

>  <Chemical name>
3-({6-[(2S,4S)-4-fluoro-2-(hydroxymethyl)pyrrolidin-1-yl]-9H-purin-9-yl}methyl)oxolan-3-ol

>  <ClogP>
-0,981

>  <logS>
-2,792

>  <HBD>
2

>  <HBA>
7

>  <TPSA>
96,53

>  <RotBonds>
4

$$$$

  Mrv1925 04172511352D          

 28 32  0  0  0  0            999 V2000
   -1.6769    0.6644    0.0000 O   0  0  0  0  0  0  0  0  0  0  0  0
   -2.3270    1.1723    0.0000 C   0  0  0  0  0  0  0  0  0  0  0  0
   -1.7139    1.7243    0.0000 C   0  0  0  0  0  0  0  0  0  0  0  0
   -0.9293    1.4694    0.0000 N   0  0  0  0  0  0  0  0  0  0  0  0
   -0.2618    1.9543    0.0000 C   0  0  0  0  0  0  0  0  0  0  0  0
    0.4056    1.4694    0.0000 N   0  0  0  0  0  0  0  0  0  0  0  0
    0.1507    0.6848    0.0000 C   0  0  0  0  0  0  0  0  0  0  0  0
    0.2398   -0.1636    0.0000 C   0  0  0  0  0  0  0  0  0  0  0  0
    0.1507   -0.7442    0.0000 N   0  0  0  0  0  0  0  0  0  0  0  0
   -0.6743   -0.7442    0.0000 C   0  0  0  0  0  0  0  0  0  0  0  0
   -1.0868   -0.0297    0.0000 N   0  0  0  0  0  0  0  0  0  0  0  0
   -0.6743    0.6848    0.0000 C   0  0  0  0  0  0  0  0  0  0  0  0
    1.3882   -0.0297    0.0000 N   0  0  0  0  0  0  0  0  0  0  0  0
    1.6577    1.0482    0.0000 C   0  0  0  0  0  0  0  0  0  0  0  0
    0.8955    0.7325    0.0000 C   0  0  0  0  0  0  0  0  0  0  0  0
    0.5797   -0.0297    0.0000 C   0  0  0  0  0  0  0  0  0  0  0  0
    0.8955   -0.7919    0.0000 C   0  0  0  0  0  0  0  0  0  0  0  0
    1.6577   -1.1076    0.0000 C   0  0  0  0  0  0  0  0  0  0  0  0
    2.4199   -0.7919    0.0000 C   0  0  0  0  0  0  0  0  0  0  0  0
    2.7356   -0.0297    0.0000 C   0  0  0  0  0  0  0  0  0  0  0  0
    3.5441   -0.3885    0.0000 F   0  0  0  0  0  0  0  0  0  0  0  0
    3.5158    0.4136    0.0000 F   0  0  0  0  0  0  0  0  0  0  0  0
    2.4199    0.7325    0.0000 C   0  0  0  0  0  0  0  0  0  0  0  0
   -2.7143    0.4439    0.0000 C   0  0  0  0  0  0  0  0  0  0  0  0
   -3.5388    0.4151    0.0000 C   0  0  0  0  0  0  0  0  0  0  0  0
   -3.9760    1.1147    0.0000 O   0  0  0  0  0  0  0  0  0  0  0  0
   -3.5887    1.8431    0.0000 C   0  0  0  0  0  0  0  0  0  0  0  0
   -2.7642    1.8719    0.0000 C   0  0  0  0  0  0  0  0  0  0  0  0
  1  2  1  0  0  0  0
  2  3  1  0  0  0  0
  3  4  1  0  0  0  0
  4  5  1  0  0  0  0
  5  6  2  0  0  0  0
  6  7  1  0  0  0  0
  7  8  2  0  0  0  0
  8  9  1  0  0  0  0
  9 10  2  0  0  0  0
 10 11  1  0  0  0  0
 11 12  2  0  0  0  0
  7 12  1  0  0  0  0
  4 12  1  0  0  0  0
  8 13  1  0  0  0  0
 13 14  1  0  0  0  0
 14 15  1  0  0  0  0
 15 16  1  0  0  0  0
 16 17  1  0  0  0  0
 17 18  1  0  0  0  0
 13 18  1  0  0  0  0
 18 19  1  0  0  0  0
 19 20  1  0  0  0  0
 20 21  1  0  0  0  0
 20 22  1  0  0  0  0
 20 23  1  0  0  0  0
 14 23  1  0  0  0  0
  2 24  1  0  0  0  0
 24 25  1  0  0  0  0
 25 26  1  0  0  0  0
 26 27  1  0  0  0  0
 27 28  1  0  0  0  0
  2 28  1  0  0  0  0
M  END
>  <Catalog ID>
Z2760976981

>  <Plate_ID>
2026983-X50-04

>  <Well>
F05

>  <V, µL>
50

>  <Conc, mM>
10

>  <Formula>
C19H25F2N5O2

>  <MW>
393.4309

>  <Purity>
96.79

>  <PO>
5A-64168

>  <MW_salt>
0

>  <Stereochem.data>
Diastereomeric mixture

>  <Geometric.isomer>
Unequal mixture of geometric isomers

>  <Chemical name>
4-[(6-{3,3-difluoro-9-azabicyclo[3.3.1]nonan-9-yl}-9H-purin-9-yl)methyl]oxan-4-ol

>  <ClogP>
0,207

>  <logS>
-3,947

>  <HBD>
1

>  <HBA>
6

>  <TPSA>
76,3

>  <RotBonds>
3

$$$$

  Mrv1925 04172511352D          

 27 30  0  0  0  0            999 V2000
    1.1355    2.4750    0.0000 C   0  0  0  0  0  0  0  0  0  0  0  0
    1.8500    2.0625    0.0000 C   0  0  0  0  0  0  0  0  0  0  0  0
    2.5645    2.4750    0.0000 C   0  0  0  0  0  0  0  0  0  0  0  0
    2.5645    3.3000    0.0000 C   0  0  0  0  0  0  0  0  0  0  0  0
    3.2789    3.7125    0.0000 O   0  0  0  0  0  0  0  0  0  0  0  0
    3.9934    3.3000    0.0000 C   0  0  0  0  0  0  0  0  0  0  0  0
    4.2756    4.0752    0.0000 C   0  0  0  0  0  0  0  0  0  0  0  0
    4.8059    3.1567    0.0000 C   0  0  0  0  0  0  0  0  0  0  0  0
    3.9934    2.4750    0.0000 C   0  0  0  0  0  0  0  0  0  0  0  0
    3.2789    2.0625    0.0000 N   0  0  0  0  0  0  0  0  0  0  0  0
    3.2789    1.2375    0.0000 C   0  0  0  0  0  0  0  0  0  0  0  0
    3.9934    0.8250    0.0000 N   0  0  0  0  0  0  0  0  0  0  0  0
    3.9934    0.0000    0.0000 C   0  0  0  0  0  0  0  0  0  0  0  0
    3.2789   -0.4125    0.0000 N   0  0  0  0  0  0  0  0  0  0  0  0
    2.5645    0.0000    0.0000 C   0  0  0  0  0  0  0  0  0  0  0  0
    2.5645    0.8250    0.0000 C   0  0  0  0  0  0  0  0  0  0  0  0
    1.7798    1.0799    0.0000 N   0  0  0  0  0  0  0  0  0  0  0  0
    1.2949    0.4125    0.0000 C   0  0  0  0  0  0  0  0  0  0  0  0
    1.7798   -0.2549    0.0000 N   0  0  0  0  0  0  0  0  0  0  0  0
    1.5249   -1.0396    0.0000 C   0  0  0  0  0  0  0  0  0  0  0  0
    2.0769   -1.6527    0.0000 C   0  0  0  0  0  0  0  0  0  0  0  0
    1.3773   -2.0898    0.0000 O   0  0  0  0  0  0  0  0  0  0  0  0
    2.5848   -1.0025    0.0000 C   0  0  0  0  0  0  0  0  0  0  0  0
    3.4018   -1.1174    0.0000 C   0  0  0  0  0  0  0  0  0  0  0  0
    3.7109   -1.8823    0.0000 O   0  0  0  0  0  0  0  0  0  0  0  0
    3.2030   -2.5324    0.0000 C   0  0  0  0  0  0  0  0  0  0  0  0
    2.3860   -2.4176    0.0000 C   0  0  0  0  0  0  0  0  0  0  0  0
  1  2  1  0  0  0  0
  2  3  1  0  0  0  0
  3  4  1  0  0  0  0
  4  5  1  0  0  0  0
  5  6  1  0  0  0  0
  6  7  1  0  0  0  0
  6  8  1  0  0  0  0
  6  9  1  0  0  0  0
  9 10  1  0  0  0  0
  3 10  1  0  0  0  0
 10 11  1  0  0  0  0
 11 12  1  0  0  0  0
 12 13  2  0  0  0  0
 13 14  1  0  0  0  0
 14 15  2  0  0  0  0
 15 16  1  0  0  0  0
 11 16  2  0  0  0  0
 16 17  1  0  0  0  0
 17 18  2  0  0  0  0
 18 19  1  0  0  0  0
 15 19  1  0  0  0  0
 19 20  1  0  0  0  0
 20 21  1  0  0  0  0
 21 22  1  0  0  0  0
 21 23  1  0  0  0  0
 23 24  1  0  0  0  0
 24 25  1  0  0  0  0
 25 26  1  0  0  0  0
 26 27  1  0  0  0  0
 21 27  1  0  0  0  0
M  END
>  <Catalog ID>
Z2760977069

>  <Plate_ID>
2026983-X50-04

>  <Well>
G05

>  <V, µL>
50

>  <Conc, mM>
10

>  <Formula>
C19H29N5O3

>  <MW>
375.4653

>  <Purity>
100

>  <PO>
5A-64168

>  <MW_salt>
0

>  <Stereochem.data>
Racemic or presumed racemic or meso

>  <Geometric.isomer>
None

>  <Chemical name>
4-{[6-(5-ethyl-2,2-dimethylmorpholin-4-yl)-9H-purin-9-yl]methyl}oxan-4-ol

>  <ClogP>
0,652

>  <logS>
-3,747

>  <HBD>
1

>  <HBA>
7

>  <TPSA>
85,53

>  <RotBonds>
4

$$$$

  Mrv1925 04172511352D          

 26 29  0  0  0  0            999 V2000
    1.1355    2.4750    0.0000 C   0  0  0  0  0  0  0  0  0  0  0  0
    1.8500    2.0625    0.0000 C   0  0  0  0  0  0  0  0  0  0  0  0
    2.5645    2.4750    0.0000 C   0  0  0  0  0  0  0  0  0  0  0  0
    2.5645    3.3000    0.0000 C   0  0  0  0  0  0  0  0  0  0  0  0
    1.8500    3.7125    0.0000 O   0  0  0  0  0  0  0  0  0  0  0  0
    3.2789    3.7125    0.0000 N   0  0  0  0  0  0  0  0  0  0  0  0
    3.2789    4.5375    0.0000 C   0  0  0  0  0  0  0  0  0  0  0  0
    3.9934    3.3000    0.0000 C   0  0  0  0  0  0  0  0  0  0  0  0
    3.9934    2.4750    0.0000 C   0  0  0  0  0  0  0  0  0  0  0  0
    3.2789    2.0625    0.0000 N   0  0  0  0  0  0  0  0  0  0  0  0
    3.2789    1.2375    0.0000 C   0  0  0  0  0  0  0  0  0  0  0  0
    3.9934    0.8250    0.0000 N   0  0  0  0  0  0  0  0  0  0  0  0
    3.9934    0.0000    0.0000 C   0  0  0  0  0  0  0  0  0  0  0  0
    3.2789   -0.4125    0.0000 N   0  0  0  0  0  0  0  0  0  0  0  0
    2.5645    0.0000    0.0000 C   0  0  0  0  0  0  0  0  0  0  0  0
    2.5645    0.8250    0.0000 C   0  0  0  0  0  0  0  0  0  0  0  0
    1.7798    1.0799    0.0000 N   0  0  0  0  0  0  0  0  0  0  0  0
    1.2949    0.4125    0.0000 C   0  0  0  0  0  0  0  0  0  0  0  0
    1.7798   -0.2549    0.0000 N   0  0  0  0  0  0  0  0  0  0  0  0
    1.5249   -1.0396    0.0000 C   0  0  0  0  0  0  0  0  0  0  0  0
    0.7179   -1.2111    0.0000 C   0  0  0  0  0  0  0  0  0  0  0  0
    0.5464   -0.4041    0.0000 C   0  0  0  0  0  0  0  0  0  0  0  0
   -0.2382   -0.1492    0.0000 O   0  0  0  0  0  0  0  0  0  0  0  0
    0.8895   -2.0181    0.0000 C   0  0  0  0  0  0  0  0  0  0  0  0
    0.0825   -2.1896    0.0000 O   0  0  0  0  0  0  0  0  0  0  0  0
   -0.0890   -1.3826    0.0000 C   0  0  0  0  0  0  0  0  0  0  0  0
  1  2  1  0  0  0  0
  2  3  1  0  0  0  0
  3  4  1  0  0  0  0
  4  5  2  0  0  0  0
  4  6  1  0  0  0  0
  6  7  1  0  0  0  0
  6  8  1  0  0  0  0
  8  9  1  0  0  0  0
  9 10  1  0  0  0  0
  3 10  1  0  0  0  0
 10 11  1  0  0  0  0
 11 12  1  0  0  0  0
 12 13  2  0  0  0  0
 13 14  1  0  0  0  0
 14 15  2  0  0  0  0
 15 16  1  0  0  0  0
 11 16  2  0  0  0  0
 16 17  1  0  0  0  0
 17 18  2  0  0  0  0
 18 19  1  0  0  0  0
 15 19  1  0  0  0  0
 19 20  1  0  0  0  0
 20 21  1  0  0  0  0
 21 22  1  0  0  0  0
 22 23  1  0  0  0  0
 21 24  1  0  0  0  0
 24 25  1  0  0  0  0
 25 26  1  0  0  0  0
 21 26  1  0  0  0  0
M  END
>  <Catalog ID>
Z2760977402

>  <Plate_ID>
2026983-X50-04

>  <Well>
H05

>  <V, µL>
50

>  <Conc, mM>
10

>  <Formula>
C17H24N6O3

>  <MW>
360.4109

>  <Purity>
100

>  <PO>
5A-64168

>  <MW_salt>
0

>  <Stereochem.data>
Racemic or presumed racemic or meso

>  <Geometric.isomer>
None

>  <Chemical name>
3-ethyl-4-(9-{[3-(hydroxymethyl)oxetan-3-yl]methyl}-9H-purin-6-yl)-1-methylpiperazin-2-one

>  <ClogP>
-0,974

>  <logS>
-2,722

>  <HBD>
1

>  <HBA>
7

>  <TPSA>
96,61

>  <RotBonds>
5

$$$$

  Mrv1925 04172511352D          

 27 30  0  0  0  0            999 V2000
    6.0426    4.3069    0.0000 C   0  0  0  0  0  0  0  0  0  0  0  0
    5.2222    4.2207    0.0000 C   0  0  0  0  0  0  0  0  0  0  0  0
    4.7372    4.8881    0.0000 C   0  0  0  0  0  0  0  0  0  0  0  0
    4.8866    3.4670    0.0000 N   0  0  0  0  0  0  0  0  0  0  0  0
    5.2991    2.7525    0.0000 C   0  0  0  0  0  0  0  0  0  0  0  0
    4.7471    2.1394    0.0000 C   0  0  0  0  0  0  0  0  0  0  0  0
    3.9934    2.4750    0.0000 C   0  0  0  0  0  0  0  0  0  0  0  0
    4.0796    3.2955    0.0000 C   0  0  0  0  0  0  0  0  0  0  0  0
    3.2789    2.0625    0.0000 N   0  0  0  0  0  0  0  0  0  0  0  0
    2.5645    2.4750    0.0000 C   0  0  0  0  0  0  0  0  0  0  0  0
    3.2789    1.2375    0.0000 C   0  0  0  0  0  0  0  0  0  0  0  0
    3.9934    0.8250    0.0000 N   0  0  0  0  0  0  0  0  0  0  0  0
    3.9934    0.0000    0.0000 C   0  0  0  0  0  0  0  0  0  0  0  0
    3.2789   -0.4125    0.0000 N   0  0  0  0  0  0  0  0  0  0  0  0
    2.5645    0.0000    0.0000 C   0  0  0  0  0  0  0  0  0  0  0  0
    2.5645    0.8250    0.0000 C   0  0  0  0  0  0  0  0  0  0  0  0
    1.7798    1.0799    0.0000 N   0  0  0  0  0  0  0  0  0  0  0  0
    1.2949    0.4125    0.0000 C   0  0  0  0  0  0  0  0  0  0  0  0
    1.7798   -0.2549    0.0000 N   0  0  0  0  0  0  0  0  0  0  0  0
    1.5249   -1.0396    0.0000 C   0  0  0  0  0  0  0  0  0  0  0  0
    2.0769   -1.6527    0.0000 C   0  0  0  0  0  0  0  0  0  0  0  0
    1.3773   -2.0898    0.0000 O   0  0  0  0  0  0  0  0  0  0  0  0
    2.5848   -1.0025    0.0000 C   0  0  0  0  0  0  0  0  0  0  0  0
    3.4018   -1.1174    0.0000 C   0  0  0  0  0  0  0  0  0  0  0  0
    3.7109   -1.8823    0.0000 O   0  0  0  0  0  0  0  0  0  0  0  0
    3.2030   -2.5324    0.0000 C   0  0  0  0  0  0  0  0  0  0  0  0
    2.3860   -2.4176    0.0000 C   0  0  0  0  0  0  0  0  0  0  0  0
  1  2  1  0  0  0  0
  2  3  1  0  0  0  0
  2  4  1  0  0  0  0
  4  5  1  0  0  0  0
  5  6  1  0  0  0  0
  6  7  1  0  0  0  0
  7  8  1  0  0  0  0
  4  8  1  0  0  0  0
  7  9  1  0  0  0  0
  9 10  1  0  0  0  0
  9 11  1  0  0  0  0
 11 12  1  0  0  0  0
 12 13  2  0  0  0  0
 13 14  1  0  0  0  0
 14 15  2  0  0  0  0
 15 16  1  0  0  0  0
 11 16  2  0  0  0  0
 16 17  1  0  0  0  0
 17 18  2  0  0  0  0
 18 19  1  0  0  0  0
 15 19  1  0  0  0  0
 19 20  1  0  0  0  0
 20 21  1  0  0  0  0
 21 22  1  0  0  0  0
 21 23  1  0  0  0  0
 23 24  1  0  0  0  0
 24 25  1  0  0  0  0
 25 26  1  0  0  0  0
 26 27  1  0  0  0  0
 21 27  1  0  0  0  0
M  END
>  <Catalog ID>
Z2760975177

>  <Plate_ID>
2026983-X50-04

>  <Well>
A06

>  <V, µL>
50

>  <Conc, mM>
10

>  <Formula>
C19H30N6O2

>  <MW>
374.4805

>  <Purity>
90

>  <PO>
5A-64168

>  <MW_salt>
0

>  <Stereochem.data>
Racemic or presumed racemic or meso

>  <Geometric.isomer>
None

>  <Chemical name>
4-[(6-{methyl[1-(propan-2-yl)pyrrolidin-3-yl]amino}-9H-purin-9-yl)methyl]oxan-4-ol

>  <ClogP>
0,375

>  <logS>
-2,627

>  <HBD>
1

>  <HBA>
7

>  <TPSA>
79,54

>  <RotBonds>
5

$$$$

  Mrv1925 04172511352D          

 28 32  0  0  0  0            999 V2000
    1.2397    0.7234    0.0000 C   0  0  0  0  0  0  0  0  0  0  0  0
    0.4273    0.8666    0.0000 C   0  0  0  0  0  0  0  0  0  0  0  0
    0.7094    1.6419    0.0000 C   0  0  0  0  0  0  0  0  0  0  0  0
    0.4273    0.0416    0.0000 C   0  0  0  0  0  0  0  0  0  0  0  0
   -0.2872   -0.3709    0.0000 N   0  0  0  0  0  0  0  0  0  0  0  0
   -1.0017    0.0416    0.0000 C   0  0  0  0  0  0  0  0  0  0  0  0
   -1.0017    0.8666    0.0000 C   0  0  0  0  0  0  0  0  0  0  0  0
   -1.7553    0.5311    0.0000 C   0  0  0  0  0  0  0  0  0  0  0  0
   -2.3074    1.1442    0.0000 C   0  0  0  0  0  0  0  0  0  0  0  0
   -1.8949    1.8586    0.0000 O   0  0  0  0  0  0  0  0  0  0  0  0
   -1.0879    1.6871    0.0000 C   0  0  0  0  0  0  0  0  0  0  0  0
   -0.2872    1.2791    0.0000 O   0  0  0  0  0  0  0  0  0  0  0  0
   -0.2872   -1.1959    0.0000 C   0  0  0  0  0  0  0  0  0  0  0  0
    0.4273   -1.6084    0.0000 N   0  0  0  0  0  0  0  0  0  0  0  0
    0.4273   -2.4334    0.0000 C   0  0  0  0  0  0  0  0  0  0  0  0
   -0.2872   -2.8459    0.0000 N   0  0  0  0  0  0  0  0  0  0  0  0
   -1.0017   -2.4334    0.0000 C   0  0  0  0  0  0  0  0  0  0  0  0
   -1.0017   -1.6084    0.0000 C   0  0  0  0  0  0  0  0  0  0  0  0
   -1.7863   -1.3534    0.0000 N   0  0  0  0  0  0  0  0  0  0  0  0
   -2.2712   -2.0209    0.0000 C   0  0  0  0  0  0  0  0  0  0  0  0
   -1.7863   -2.6883    0.0000 N   0  0  0  0  0  0  0  0  0  0  0  0
   -2.0412   -3.4729    0.0000 C   0  0  0  0  0  0  0  0  0  0  0  0
   -2.8482   -3.6445    0.0000 C   0  0  0  0  0  0  0  0  0  0  0  0
   -3.0197   -2.8375    0.0000 C   0  0  0  0  0  0  0  0  0  0  0  0
   -3.8043   -2.5825    0.0000 O   0  0  0  0  0  0  0  0  0  0  0  0
   -2.6767   -4.4514    0.0000 C   0  0  0  0  0  0  0  0  0  0  0  0
   -3.4836   -4.6230    0.0000 O   0  0  0  0  0  0  0  0  0  0  0  0
   -3.6552   -3.8160    0.0000 C   0  0  0  0  0  0  0  0  0  0  0  0
  1  2  1  0  0  0  0
  2  3  1  0  0  0  0
  2  4  1  0  0  0  0
  4  5  1  0  0  0  0
  5  6  1  0  0  0  0
  6  7  1  0  0  0  0
  7  8  1  0  0  0  0
  8  9  1  0  0  0  0
  9 10  1  0  0  0  0
 10 11  1  0  0  0  0
  7 11  1  0  0  0  0
  7 12  1  0  0  0  0
  2 12  1  0  0  0  0
  5 13  1  0  0  0  0
 13 14  1  0  0  0  0
 14 15  2  0  0  0  0
 15 16  1  0  0  0  0
 16 17  2  0  0  0  0
 17 18  1  0  0  0  0
 13 18  2  0  0  0  0
 18 19  1  0  0  0  0
 19 20  2  0  0  0  0
 20 21  1  0  0  0  0
 17 21  1  0  0  0  0
 21 22  1  0  0  0  0
 22 23  1  0  0  0  0
 23 24  1  0  0  0  0
 24 25  1  0  0  0  0
 23 26  1  0  0  0  0
 26 27  1  0  0  0  0
 27 28  1  0  0  0  0
 23 28  1  0  0  0  0
M  END
>  <Catalog ID>
Z2760965290

>  <Plate_ID>
2026983-X50-04

>  <Well>
B06

>  <V, µL>
50

>  <Conc, mM>
10

>  <Formula>
C19H27N5O4

>  <MW>
389.4488

>  <Purity>
100

>  <PO>
5A-64168

>  <MW_salt>
0

>  <Stereochem.data>
Racemic or presumed racemic or meso

>  <Geometric.isomer>
None

>  <Chemical name>
{3-[(6-{7,7-dimethyl-2,6-dioxa-9-azaspiro[4.5]decan-9-yl}-9H-purin-9-yl)methyl]oxetan-3-yl}methanol

>  <ClogP>
-1,426

>  <logS>
-2,986

>  <HBD>
1

>  <HBA>
8

>  <TPSA>
94,76

>  <RotBonds>
4

$$$$

  Mrv1925 04172511352D          

 26 28  0  0  0  0            999 V2000
    4.7079    2.0625    0.0000 C   0  0  0  0  0  0  0  0  0  0  0  0
    3.9934    2.4750    0.0000 C   0  0  0  0  0  0  0  0  0  0  0  0
    3.9934    3.3000    0.0000 C   0  0  0  0  0  0  0  0  0  0  0  0
    3.2789    3.7125    0.0000 C   0  0  0  0  0  0  0  0  0  0  0  0
    4.7079    3.7125    0.0000 S   0  0  0  0  0  0  0  0  0  0  0  0
    5.4223    4.1250    0.0000 C   0  0  0  0  0  0  0  0  0  0  0  0
    4.2954    4.4270    0.0000 O   0  0  0  0  0  0  0  0  0  0  0  0
    5.1204    2.9980    0.0000 O   0  0  0  0  0  0  0  0  0  0  0  0
    3.2789    2.0625    0.0000 N   0  0  0  0  0  0  0  0  0  0  0  0
    2.5645    2.4750    0.0000 C   0  0  0  0  0  0  0  0  0  0  0  0
    3.2789    1.2375    0.0000 C   0  0  0  0  0  0  0  0  0  0  0  0
    3.9934    0.8250    0.0000 N   0  0  0  0  0  0  0  0  0  0  0  0
    3.9934    0.0000    0.0000 C   0  0  0  0  0  0  0  0  0  0  0  0
    3.2789   -0.4125    0.0000 N   0  0  0  0  0  0  0  0  0  0  0  0
    2.5645    0.0000    0.0000 C   0  0  0  0  0  0  0  0  0  0  0  0
    2.5645    0.8250    0.0000 C   0  0  0  0  0  0  0  0  0  0  0  0
    1.7798    1.0799    0.0000 N   0  0  0  0  0  0  0  0  0  0  0  0
    1.2949    0.4125    0.0000 C   0  0  0  0  0  0  0  0  0  0  0  0
    1.7798   -0.2549    0.0000 N   0  0  0  0  0  0  0  0  0  0  0  0
    1.5249   -1.0396    0.0000 C   0  0  0  0  0  0  0  0  0  0  0  0
    2.0769   -1.6527    0.0000 C   0  0  0  0  0  0  0  0  0  0  0  0
    1.4638   -2.2047    0.0000 C   0  0  0  0  0  0  0  0  0  0  0  0
    1.6354   -3.0117    0.0000 O   0  0  0  0  0  0  0  0  0  0  0  0
    2.6900   -1.1006    0.0000 C   0  0  0  0  0  0  0  0  0  0  0  0
    3.2421   -1.7137    0.0000 O   0  0  0  0  0  0  0  0  0  0  0  0
    2.6290   -2.2657    0.0000 C   0  0  0  0  0  0  0  0  0  0  0  0
  1  2  1  0  0  0  0
  2  3  1  0  0  0  0
  3  4  1  0  0  0  0
  3  5  1  0  0  0  0
  5  6  1  0  0  0  0
  5  7  2  0  0  0  0
  5  8  2  0  0  0  0
  2  9  1  0  0  0  0
  9 10  1  0  0  0  0
  9 11  1  0  0  0  0
 11 12  1  0  0  0  0
 12 13  2  0  0  0  0
 13 14  1  0  0  0  0
 14 15  2  0  0  0  0
 15 16  1  0  0  0  0
 11 16  2  0  0  0  0
 16 17  1  0  0  0  0
 17 18  2  0  0  0  0
 18 19  1  0  0  0  0
 15 19  1  0  0  0  0
 19 20  1  0  0  0  0
 20 21  1  0  0  0  0
 21 22  1  0  0  0  0
 22 23  1  0  0  0  0
 21 24  1  0  0  0  0
 24 25  1  0  0  0  0
 25 26  1  0  0  0  0
 21 26  1  0  0  0  0
M  END
>  <Catalog ID>
Z2760946602

>  <Plate_ID>
2026983-X50-04

>  <Well>
C06

>  <V, µL>
50

>  <Conc, mM>
10

>  <Formula>
C16H25N5O4S

>  <MW>
383.4658

>  <Purity>
91

>  <PO>
5A-64168

>  <MW_salt>
0

>  <Stereochem.data>
Diastereomeric mixture

>  <Geometric.isomer>
None

>  <Chemical name>
[3-({6-[(3-methanesulfonylbutan-2-yl)(methyl)amino]-9H-purin-9-yl}methyl)oxetan-3-yl]methanol

>  <ClogP>
-1,912

>  <logS>
-2,081

>  <HBD>
1

>  <HBA>
8

>  <TPSA>
110,44

>  <RotBonds>
7

$$$$

  Mrv1925 04172511352D          

 26 30  0  0  0  0            999 V2000
    3.0845    0.2725    0.0000 O   0  0  0  0  0  0  0  0  0  0  0  0
    2.1753    0.7654    0.0000 C   0  0  0  0  0  0  0  0  0  0  0  0
    2.8664    1.5543    0.0000 C   0  0  0  0  0  0  0  0  0  0  0  0
    3.6914    1.5543    0.0000 C   0  0  0  0  0  0  0  0  0  0  0  0
    4.1039    2.2688    0.0000 C   0  0  0  0  0  0  0  0  0  0  0  0
    3.6914    2.9832    0.0000 C   0  0  0  0  0  0  0  0  0  0  0  0
    2.8664    2.9832    0.0000 C   0  0  0  0  0  0  0  0  0  0  0  0
    2.4539    2.2688    0.0000 C   0  0  0  0  0  0  0  0  0  0  0  0
    3.2789    2.0625    0.0000 N   0  0  0  0  0  0  0  0  0  0  0  0
    3.2789    1.2375    0.0000 C   0  0  0  0  0  0  0  0  0  0  0  0
    3.9934    0.8250    0.0000 N   0  0  0  0  0  0  0  0  0  0  0  0
    3.9934    0.0000    0.0000 C   0  0  0  0  0  0  0  0  0  0  0  0
    3.2789   -0.4125    0.0000 N   0  0  0  0  0  0  0  0  0  0  0  0
    2.5645    0.0000    0.0000 C   0  0  0  0  0  0  0  0  0  0  0  0
    2.5645    0.8250    0.0000 C   0  0  0  0  0  0  0  0  0  0  0  0
    1.7798    1.0799    0.0000 N   0  0  0  0  0  0  0  0  0  0  0  0
    1.2949    0.4125    0.0000 C   0  0  0  0  0  0  0  0  0  0  0  0
    1.7798   -0.2549    0.0000 N   0  0  0  0  0  0  0  0  0  0  0  0
    1.5249   -1.0396    0.0000 C   0  0  0  0  0  0  0  0  0  0  0  0
    1.8994   -1.7746    0.0000 C   0  0  0  0  0  0  0  0  0  0  0  0
    1.1644   -2.1492    0.0000 C   0  0  0  0  0  0  0  0  0  0  0  0
    1.4841   -2.9708    0.0000 C   0  0  0  0  0  0  0  0  0  0  0  0
    1.3548   -3.8066    0.0000 O   0  0  0  0  0  0  0  0  0  0  0  0
    0.3031   -2.4295    0.0000 C   0  0  0  0  0  0  0  0  0  0  0  0
   -0.5335   -2.2424    0.0000 O   0  0  0  0  0  0  0  0  0  0  0  0
    0.7898   -1.4141    0.0000 C   0  0  0  0  0  0  0  0  0  0  0  0
  1  2  1  0  0  0  0
  2  3  1  0  0  0  0
  3  4  1  0  0  0  0
  4  5  1  0  0  0  0
  5  6  1  0  0  0  0
  6  7  1  0  0  0  0
  7  8  1  0  0  0  0
  3  8  1  0  0  0  0
  8  9  1  0  0  0  0
  5  9  1  0  0  0  0
  9 10  1  0  0  0  0
 10 11  1  0  0  0  0
 11 12  2  0  0  0  0
 12 13  1  0  0  0  0
 13 14  2  0  0  0  0
 14 15  1  0  0  0  0
 10 15  2  0  0  0  0
 15 16  1  0  0  0  0
 16 17  2  0  0  0  0
 17 18  1  0  0  0  0
 14 18  1  0  0  0  0
 18 19  1  0  0  0  0
 19 20  1  0  0  0  0
 20 21  1  0  0  0  0
 21 22  1  0  0  0  0
 22 23  1  0  0  0  0
 21 24  1  0  0  0  0
 24 25  1  0  0  0  0
 21 26  1  0  0  0  0
 19 26  1  0  0  0  0
M  END
>  <Catalog ID>
Z2760974090

>  <Plate_ID>
2026983-X50-04

>  <Well>
D06

>  <V, µL>
50

>  <Conc, mM>
10

>  <Formula>
C18H25N5O3

>  <MW>
359.4228

>  <Purity>
100

>  <PO>
5A-64168

>  <MW_salt>
0

>  <Stereochem.data>
Diastereomeric mixture

>  <Geometric.isomer>
None

>  <Chemical name>
[1-(hydroxymethyl)-3-{6-[2-(hydroxymethyl)-7-azabicyclo[2.2.1]heptan-7-yl]-9H-purin-9-yl}cyclobutyl]methanol

>  <ClogP>
-1,924

>  <logS>
-1,819

>  <HBD>
3

>  <HBA>
7

>  <TPSA>
107,53

>  <RotBonds>
5

$$$$

  Mrv1925 04172511352D          

 28 31  0  0  0  0            999 V2000
    6.1368    4.5375    0.0000 C   0  0  0  0  0  0  0  0  0  0  0  0
    6.1368    3.7125    0.0000 C   0  0  0  0  0  0  0  0  0  0  0  0
    5.4223    3.3000    0.0000 N   0  0  0  0  0  0  0  0  0  0  0  0
    5.4223    2.4750    0.0000 C   0  0  0  0  0  0  0  0  0  0  0  0
    4.7079    2.0625    0.0000 C   0  0  0  0  0  0  0  0  0  0  0  0
    3.9934    2.4750    0.0000 C   0  0  0  0  0  0  0  0  0  0  0  0
    3.9934    3.3000    0.0000 C   0  0  0  0  0  0  0  0  0  0  0  0
    3.2789    3.7125    0.0000 C   0  0  0  0  0  0  0  0  0  0  0  0
    4.7079    3.7125    0.0000 C   0  0  0  0  0  0  0  0  0  0  0  0
    3.2789    2.0625    0.0000 N   0  0  0  0  0  0  0  0  0  0  0  0
    2.5645    2.4750    0.0000 C   0  0  0  0  0  0  0  0  0  0  0  0
    3.2789    1.2375    0.0000 C   0  0  0  0  0  0  0  0  0  0  0  0
    3.9934    0.8250    0.0000 N   0  0  0  0  0  0  0  0  0  0  0  0
    3.9934    0.0000    0.0000 C   0  0  0  0  0  0  0  0  0  0  0  0
    3.2789   -0.4125    0.0000 N   0  0  0  0  0  0  0  0  0  0  0  0
    2.5645    0.0000    0.0000 C   0  0  0  0  0  0  0  0  0  0  0  0
    2.5645    0.8250    0.0000 C   0  0  0  0  0  0  0  0  0  0  0  0
    1.7798    1.0799    0.0000 N   0  0  0  0  0  0  0  0  0  0  0  0
    1.2949    0.4125    0.0000 C   0  0  0  0  0  0  0  0  0  0  0  0
    1.7798   -0.2549    0.0000 N   0  0  0  0  0  0  0  0  0  0  0  0
    1.5249   -1.0396    0.0000 C   0  0  0  0  0  0  0  0  0  0  0  0
    1.8994   -1.7746    0.0000 C   0  0  0  0  0  0  0  0  0  0  0  0
    1.1644   -2.1492    0.0000 C   0  0  0  0  0  0  0  0  0  0  0  0
    1.5389   -2.8843    0.0000 C   0  0  0  0  0  0  0  0  0  0  0  0
    2.3628   -2.9274    0.0000 O   0  0  0  0  0  0  0  0  0  0  0  0
    0.4293   -2.5237    0.0000 C   0  0  0  0  0  0  0  0  0  0  0  0
   -0.2626   -2.0744    0.0000 O   0  0  0  0  0  0  0  0  0  0  0  0
    0.7898   -1.4141    0.0000 C   0  0  0  0  0  0  0  0  0  0  0  0
  1  2  1  0  0  0  0
  2  3  1  0  0  0  0
  3  4  1  0  0  0  0
  4  5  1  0  0  0  0
  5  6  1  0  0  0  0
  6  7  1  0  0  0  0
  7  8  1  0  0  0  0
  7  9  1  0  0  0  0
  3  9  1  0  0  0  0
  6 10  1  0  0  0  0
 10 11  1  0  0  0  0
 10 12  1  0  0  0  0
 12 13  1  0  0  0  0
 13 14  2  0  0  0  0
 14 15  1  0  0  0  0
 15 16  2  0  0  0  0
 16 17  1  0  0  0  0
 12 17  2  0  0  0  0
 17 18  1  0  0  0  0
 18 19  2  0  0  0  0
 19 20  1  0  0  0  0
 16 20  1  0  0  0  0
 20 21  1  0  0  0  0
 21 22  1  0  0  0  0
 22 23  1  0  0  0  0
 23 24  1  0  0  0  0
 24 25  1  0  0  0  0
 23 26  1  0  0  0  0
 26 27  1  0  0  0  0
 23 28  1  0  0  0  0
 21 28  1  0  0  0  0
M  END
>  <Catalog ID>
Z2760948961

>  <Plate_ID>
2026983-X50-04

>  <Well>
E06

>  <V, µL>
50

>  <Conc, mM>
10

>  <Formula>
C20H32N6O2

>  <MW>
388.5071

>  <Purity>
94.25

>  <PO>
5A-64168

>  <MW_salt>
0

>  <Stereochem.data>
Diastereomeric mixture

>  <Geometric.isomer>
Unknown

>  <Chemical name>
(3-{6-[(1-ethyl-3-methylpiperidin-4-yl)(methyl)amino]-9H-purin-9-yl}-1-(hydroxymethyl)cyclobutyl)methanol

>  <ClogP>
0,222

>  <logS>
-1,932

>  <HBD>
2

>  <HBA>
7

>  <TPSA>
90,54

>  <RotBonds>
6

$$$$

  Mrv1925 04172511352D          

 27 30  0  0  1  0            999 V2000
    2.7171    4.7532    0.0000 C   0  0  0  0  0  0  0  0  0  0  0  0
    2.3815    3.9995    0.0000 O   0  0  0  0  0  0  0  0  0  0  0  0
    2.8664    3.3320    0.0000 C   0  0  1  0  0  0  0  0  0  0  0  0
    3.6914    3.3320    0.0000 C   0  0  0  0  0  0  0  0  0  0  0  0
    3.9464    2.5474    0.0000 C   0  0  1  0  0  0  0  0  0  0  0  0
    4.7310    2.2925    0.0000 C   0  0  0  0  0  0  0  0  0  0  0  0
    4.9025    1.4855    0.0000 N   0  0  0  0  0  0  0  0  0  0  0  0
    5.3441    2.8445    0.0000 O   0  0  0  0  0  0  0  0  0  0  0  0
    3.2789    2.0625    0.0000 N   0  0  0  0  0  0  0  0  0  0  0  0
    2.6115    2.5474    0.0000 C   0  0  0  0  0  0  0  0  0  0  0  0
    3.2789    1.2375    0.0000 C   0  0  0  0  0  0  0  0  0  0  0  0
    3.9934    0.8250    0.0000 N   0  0  0  0  0  0  0  0  0  0  0  0
    3.9934    0.0000    0.0000 C   0  0  0  0  0  0  0  0  0  0  0  0
    3.2789   -0.4125    0.0000 N   0  0  0  0  0  0  0  0  0  0  0  0
    2.5645    0.0000    0.0000 C   0  0  0  0  0  0  0  0  0  0  0  0
    2.5645    0.8250    0.0000 C   0  0  0  0  0  0  0  0  0  0  0  0
    1.7798    1.0799    0.0000 N   0  0  0  0  0  0  0  0  0  0  0  0
    1.2949    0.4125    0.0000 C   0  0  0  0  0  0  0  0  0  0  0  0
    1.7798   -0.2549    0.0000 N   0  0  0  0  0  0  0  0  0  0  0  0
    1.5249   -1.0396    0.0000 C   0  0  0  0  0  0  0  0  0  0  0  0
    2.0769   -1.6527    0.0000 C   0  0  0  0  0  0  0  0  0  0  0  0
    2.8839   -1.4811    0.0000 O   0  0  0  0  0  0  0  0  0  0  0  0
    1.8220   -2.4373    0.0000 C   0  0  0  0  0  0  0  0  0  0  0  0
    2.3069   -3.1047    0.0000 C   0  0  0  0  0  0  0  0  0  0  0  0
    1.8220   -3.7722    0.0000 C   0  0  0  0  0  0  0  0  0  0  0  0
    1.0374   -3.5172    0.0000 C   0  0  0  0  0  0  0  0  0  0  0  0
    1.0374   -2.6922    0.0000 O   0  0  0  0  0  0  0  0  0  0  0  0
  1  2  1  0  0  0  0
  3  2  1  1  0  0  0
  3  4  1  0  0  0  0
  5  4  1  0  0  0  0
  5  6  1  1  0  0  0
  6  7  1  0  0  0  0
  6  8  2  0  0  0  0
  5  9  1  0  0  0  0
  9 10  1  0  0  0  0
  3 10  1  0  0  0  0
  9 11  1  0  0  0  0
 11 12  1  0  0  0  0
 12 13  2  0  0  0  0
 13 14  1  0  0  0  0
 14 15  2  0  0  0  0
 15 16  1  0  0  0  0
 11 16  2  0  0  0  0
 16 17  1  0  0  0  0
 17 18  2  0  0  0  0
 18 19  1  0  0  0  0
 15 19  1  0  0  0  0
 19 20  1  0  0  0  0
 20 21  1  0  0  0  0
 21 22  1  0  0  0  0
 21 23  1  0  0  0  0
 23 24  1  0  0  0  0
 24 25  1  0  0  0  0
 25 26  1  0  0  0  0
 26 27  1  0  0  0  0
 23 27  1  0  0  0  0
M  END
>  <Catalog ID>
Z2760968885

>  <Plate_ID>
2026983-X50-04

>  <Well>
F06

>  <V, µL>
50

>  <Conc, mM>
10

>  <Formula>
C17H24N6O4

>  <MW>
376.4103

>  <Purity>
100

>  <PO>
5A-64168

>  <MW_salt>
0

>  <Stereochem.data>
Diastereomeric mixture

>  <Geometric.isomer>
None

>  <Chemical name>
(2S,4S)-1-{9-[2-hydroxy-2-(oxolan-2-yl)ethyl]-9H-purin-6-yl}-4-methoxypyrrolidine-2-carboxamide

>  <ClogP>
-1,702

>  <logS>
-2,802

>  <HBD>
2

>  <HBA>
8

>  <TPSA>
128,62

>  <RotBonds>
6

$$$$

  Mrv1925 04172511352D          

 27 30  0  0  0  0            999 V2000
    4.7079    4.5375    0.0000 C   0  0  0  0  0  0  0  0  0  0  0  0
    4.7079    3.7125    0.0000 O   0  0  0  0  0  0  0  0  0  0  0  0
    3.9934    3.3000    0.0000 C   0  0  0  0  0  0  0  0  0  0  0  0
    3.9934    2.4750    0.0000 C   0  0  0  0  0  0  0  0  0  0  0  0
    3.2789    2.0625    0.0000 N   0  0  0  0  0  0  0  0  0  0  0  0
    3.2789    1.2375    0.0000 C   0  0  0  0  0  0  0  0  0  0  0  0
    3.9934    0.8250    0.0000 N   0  0  0  0  0  0  0  0  0  0  0  0
    3.9934    0.0000    0.0000 C   0  0  0  0  0  0  0  0  0  0  0  0
    3.2789   -0.4125    0.0000 N   0  0  0  0  0  0  0  0  0  0  0  0
    2.5645    0.0000    0.0000 C   0  0  0  0  0  0  0  0  0  0  0  0
    2.5645    0.8250    0.0000 C   0  0  0  0  0  0  0  0  0  0  0  0
    1.7798    1.0799    0.0000 N   0  0  0  0  0  0  0  0  0  0  0  0
    1.2949    0.4125    0.0000 C   0  0  0  0  0  0  0  0  0  0  0  0
    1.7798   -0.2549    0.0000 N   0  0  0  0  0  0  0  0  0  0  0  0
    1.5249   -1.0396    0.0000 C   0  0  0  0  0  0  0  0  0  0  0  0
    2.0769   -1.6527    0.0000 C   0  0  0  0  0  0  0  0  0  0  0  0
    1.4638   -2.2047    0.0000 C   0  0  0  0  0  0  0  0  0  0  0  0
    1.6354   -3.0117    0.0000 O   0  0  0  0  0  0  0  0  0  0  0  0
    2.6900   -1.1006    0.0000 C   0  0  0  0  0  0  0  0  0  0  0  0
    3.2421   -1.7137    0.0000 O   0  0  0  0  0  0  0  0  0  0  0  0
    2.6290   -2.2657    0.0000 C   0  0  0  0  0  0  0  0  0  0  0  0
    2.5645    2.4750    0.0000 C   0  0  0  0  0  0  0  0  0  0  0  0
    1.8108    2.1394    0.0000 C   0  0  0  0  0  0  0  0  0  0  0  0
    1.2587    2.7525    0.0000 C   0  0  0  0  0  0  0  0  0  0  0  0
    1.6712    3.4670    0.0000 C   0  0  0  0  0  0  0  0  0  0  0  0
    1.3357    4.2207    0.0000 C   0  0  0  0  0  0  0  0  0  0  0  0
    2.4782    3.2955    0.0000 C   0  0  0  0  0  0  0  0  0  0  0  0
  1  2  1  0  0  0  0
  2  3  1  0  0  0  0
  3  4  1  0  0  0  0
  4  5  1  0  0  0  0
  5  6  1  0  0  0  0
  6  7  1  0  0  0  0
  7  8  2  0  0  0  0
  8  9  1  0  0  0  0
  9 10  2  0  0  0  0
 10 11  1  0  0  0  0
  6 11  2  0  0  0  0
 11 12  1  0  0  0  0
 12 13  2  0  0  0  0
 13 14  1  0  0  0  0
 10 14  1  0  0  0  0
 14 15  1  0  0  0  0
 15 16  1  0  0  0  0
 16 17  1  0  0  0  0
 17 18  1  0  0  0  0
 16 19  1  0  0  0  0
 19 20  1  0  0  0  0
 20 21  1  0  0  0  0
 16 21  1  0  0  0  0
  5 22  1  0  0  0  0
 22 23  1  0  0  0  0
 23 24  1  0  0  0  0
 24 25  1  0  0  0  0
 25 26  1  0  0  0  0
 25 27  1  0  0  0  0
 22 27  1  0  0  0  0
M  END
>  <Catalog ID>
Z2760967613

>  <Plate_ID>
2026983-X50-04

>  <Well>
G06

>  <V, µL>
50

>  <Conc, mM>
10

>  <Formula>
C19H29N5O3

>  <MW>
375.4653

>  <Purity>
100

>  <PO>
5A-64168

>  <MW_salt>
0

>  <Stereochem.data>
Diastereomeric mixture

>  <Geometric.isomer>
Unequal mixture of geometric isomers

>  <Chemical name>
[3-({6-[(2-methoxyethyl)(3-methylcyclopentyl)amino]-9H-purin-9-yl}methyl)oxetan-3-yl]methanol

>  <ClogP>
0,571

>  <logS>
-2,927

>  <HBD>
1

>  <HBA>
7

>  <TPSA>
85,53

>  <RotBonds>
8

$$$$

  Mrv1925 04172511352D          

 24 26  0  0  0  0            999 V2000
    1.8414   -0.9355    0.0000 C   0  0  0  0  0  0  0  0  0  0  0  0
    1.4289   -1.6500    0.0000 C   0  0  0  0  0  0  0  0  0  0  0  0
    1.8414   -2.3645    0.0000 N   0  0  0  0  0  0  0  0  0  0  0  0
    2.6664   -2.3645    0.0000 C   0  0  0  0  0  0  0  0  0  0  0  0
    3.0789   -1.6500    0.0000 C   0  0  0  0  0  0  0  0  0  0  0  0
    2.6664   -0.9355    0.0000 C   0  0  0  0  0  0  0  0  0  0  0  0
    3.9039   -1.6500    0.0000 C   0  0  0  0  0  0  0  0  0  0  0  0
    4.7289   -1.6500    0.0000 N   0  0  0  0  0  0  0  0  0  0  0  0
    1.4289   -3.0789    0.0000 C   0  0  0  0  0  0  0  0  0  0  0  0
    1.8414   -3.7934    0.0000 N   0  0  0  0  0  0  0  0  0  0  0  0
    1.4289   -4.5079    0.0000 C   0  0  0  0  0  0  0  0  0  0  0  0
    0.6039   -4.5079    0.0000 N   0  0  0  0  0  0  0  0  0  0  0  0
    0.1914   -3.7934    0.0000 C   0  0  0  0  0  0  0  0  0  0  0  0
    0.6039   -3.0789    0.0000 C   0  0  0  0  0  0  0  0  0  0  0  0
    0.0519   -2.4658    0.0000 N   0  0  0  0  0  0  0  0  0  0  0  0
   -0.7018   -2.8014    0.0000 C   0  0  0  0  0  0  0  0  0  0  0  0
   -0.6155   -3.6219    0.0000 N   0  0  0  0  0  0  0  0  0  0  0  0
   -1.2286   -4.1739    0.0000 C   0  0  0  0  0  0  0  0  0  0  0  0
   -1.0571   -4.9809    0.0000 C   0  0  0  0  0  0  0  0  0  0  0  0
   -1.8641   -5.1524    0.0000 C   0  0  0  0  0  0  0  0  0  0  0  0
   -2.1190   -5.9370    0.0000 O   0  0  0  0  0  0  0  0  0  0  0  0
   -0.2501   -4.8094    0.0000 C   0  0  0  0  0  0  0  0  0  0  0  0
   -0.0786   -5.6163    0.0000 O   0  0  0  0  0  0  0  0  0  0  0  0
   -0.8856   -5.7879    0.0000 C   0  0  0  0  0  0  0  0  0  0  0  0
  1  2  1  0  0  0  0
  2  3  1  0  0  0  0
  3  4  1  0  0  0  0
  4  5  1  0  0  0  0
  5  6  1  0  0  0  0
  5  7  1  0  0  0  0
  7  8  3  0  0  0  0
  3  9  1  0  0  0  0
  9 10  1  0  0  0  0
 10 11  2  0  0  0  0
 11 12  1  0  0  0  0
 12 13  2  0  0  0  0
 13 14  1  0  0  0  0
  9 14  2  0  0  0  0
 14 15  1  0  0  0  0
 15 16  2  0  0  0  0
 16 17  1  0  0  0  0
 13 17  1  0  0  0  0
 17 18  1  0  0  0  0
 18 19  1  0  0  0  0
 19 20  1  0  0  0  0
 20 21  1  0  0  0  0
 19 22  1  0  0  0  0
 22 23  1  0  0  0  0
 23 24  1  0  0  0  0
 19 24  1  0  0  0  0
M  END
>  <Catalog ID>
Z2760938802

>  <Plate_ID>
2026983-X50-04

>  <Well>
H06

>  <V, µL>
50

>  <Conc, mM>
10

>  <Formula>
C16H22N6O2

>  <MW>
330.3849

>  <Purity>
95.68

>  <PO>
5A-64168

>  <MW_salt>
0

>  <Stereochem.data>
Racemic or presumed racemic or meso

>  <Geometric.isomer>
None

>  <Chemical name>
3-[ethyl(9-{[3-(hydroxymethyl)oxetan-3-yl]methyl}-9H-purin-6-yl)amino]-2-methylpropanenitrile

>  <ClogP>
-1,071

>  <logS>
-2,394

>  <HBD>
1

>  <HBA>
7

>  <TPSA>
100,09

>  <RotBonds>
7

$$$$

  Mrv1925 04172511352D          

 28 32  0  0  0  0            999 V2000
    2.6674   -1.0435    0.0000 O   0  0  0  0  0  0  0  0  0  0  0  0
    2.5526   -1.8604    0.0000 C   0  0  0  0  0  0  0  0  0  0  0  0
    3.2027   -2.3683    0.0000 C   0  0  0  0  0  0  0  0  0  0  0  0
    2.5896   -2.9204    0.0000 C   0  0  0  0  0  0  0  0  0  0  0  0
    1.8050   -2.6654    0.0000 N   0  0  0  0  0  0  0  0  0  0  0  0
    1.1375   -3.1504    0.0000 C   0  0  0  0  0  0  0  0  0  0  0  0
    0.4701   -2.6654    0.0000 N   0  0  0  0  0  0  0  0  0  0  0  0
    0.7250   -1.8808    0.0000 C   0  0  0  0  0  0  0  0  0  0  0  0
    0.3125   -1.1664    0.0000 C   0  0  0  0  0  0  0  0  0  0  0  0
    0.7250   -0.4519    0.0000 N   0  0  0  0  0  0  0  0  0  0  0  0
    1.5500   -0.4519    0.0000 C   0  0  0  0  0  0  0  0  0  0  0  0
    1.9625   -1.1664    0.0000 N   0  0  0  0  0  0  0  0  0  0  0  0
    1.5500   -1.8808    0.0000 C   0  0  0  0  0  0  0  0  0  0  0  0
   -0.5125   -1.1664    0.0000 N   0  0  0  0  0  0  0  0  0  0  0  0
   -0.9974   -1.8338    0.0000 C   0  0  0  0  0  0  0  0  0  0  0  0
   -1.7820   -1.5789    0.0000 C   0  0  0  0  0  0  0  0  0  0  0  0
   -2.4965   -1.1664    0.0000 C   0  0  0  0  0  0  0  0  0  0  0  0
   -1.7820   -0.7539    0.0000 C   0  0  0  0  0  0  0  0  0  0  0  0
   -0.9974   -0.4989    0.0000 C   0  0  0  0  0  0  0  0  0  0  0  0
   -2.1176   -0.0002    0.0000 C   0  0  0  0  0  0  0  0  0  0  0  0
   -2.4531    0.7535    0.0000 F   0  0  0  0  0  0  0  0  0  0  0  0
   -2.8713   -0.3357    0.0000 F   0  0  0  0  0  0  0  0  0  0  0  0
   -1.3639    0.3354    0.0000 F   0  0  0  0  0  0  0  0  0  0  0  0
    3.5900   -1.6399    0.0000 C   0  0  0  0  0  0  0  0  0  0  0  0
    4.4145   -1.6111    0.0000 C   0  0  0  0  0  0  0  0  0  0  0  0
    4.8517   -2.3108    0.0000 O   0  0  0  0  0  0  0  0  0  0  0  0
    4.4644   -3.0392    0.0000 C   0  0  0  0  0  0  0  0  0  0  0  0
    3.6399   -3.0680    0.0000 C   0  0  0  0  0  0  0  0  0  0  0  0
  1  2  1  0  0  0  0
  2  3  1  0  0  0  0
  3  4  1  0  0  0  0
  4  5  1  0  0  0  0
  5  6  1  0  0  0  0
  6  7  2  0  0  0  0
  7  8  1  0  0  0  0
  8  9  2  0  0  0  0
  9 10  1  0  0  0  0
 10 11  2  0  0  0  0
 11 12  1  0  0  0  0
 12 13  2  0  0  0  0
  8 13  1  0  0  0  0
  5 13  1  0  0  0  0
  9 14  1  0  0  0  0
 14 15  1  0  0  0  0
 15 16  1  0  0  0  0
 16 17  1  0  0  0  0
 17 18  1  0  0  0  0
 16 18  1  0  0  0  0
 18 19  1  0  0  0  0
 14 19  1  0  0  0  0
 18 20  1  0  0  0  0
 20 21  1  0  0  0  0
 20 22  1  0  0  0  0
 20 23  1  0  0  0  0
  3 24  1  0  0  0  0
 24 25  1  0  0  0  0
 25 26  1  0  0  0  0
 26 27  1  0  0  0  0
 27 28  1  0  0  0  0
  3 28  1  0  0  0  0
M  END
>  <Catalog ID>
Z2760970274

>  <Plate_ID>
2026983-X50-04

>  <Well>
A07

>  <V, µL>
50

>  <Conc, mM>
10

>  <Formula>
C18H22F3N5O2

>  <MW>
397.3948

>  <Purity>
100

>  <PO>
5A-64168

>  <MW_salt>
0

>  <Stereochem.data>
Diastereomeric mixture

>  <Geometric.isomer>
Unknown

>  <Chemical name>
[4-({6-[1-(trifluoromethyl)-3-azabicyclo[3.1.0]hexan-3-yl]-9H-purin-9-yl}methyl)oxan-4-yl]methanol

>  <ClogP>
-0,163

>  <logS>
-2,769

>  <HBD>
1

>  <HBA>
6

>  <TPSA>
76,3

>  <RotBonds>
5

$$$$

  Mrv1925 04172511352D          

 26 28  0  0  0  0            999 V2000
   -4.2696   -1.0462    0.0000 C   0  0  0  0  0  0  0  0  0  0  0  0
   -3.4491   -0.9600    0.0000 C   0  0  0  0  0  0  0  0  0  0  0  0
   -3.0366   -0.2455    0.0000 N   0  0  0  0  0  0  0  0  0  0  0  0
   -2.2296   -0.4170    0.0000 C   0  0  0  0  0  0  0  0  0  0  0  0
   -2.1434   -1.2375    0.0000 N   0  0  0  0  0  0  0  0  0  0  0  0
   -2.8971   -1.5731    0.0000 C   0  0  0  0  0  0  0  0  0  0  0  0
   -3.0686   -2.3800    0.0000 C   0  0  0  0  0  0  0  0  0  0  0  0
   -1.4289   -1.6500    0.0000 C   0  0  0  0  0  0  0  0  0  0  0  0
   -0.7145   -1.2375    0.0000 C   0  0  0  0  0  0  0  0  0  0  0  0
    0.0000   -1.6500    0.0000 C   0  0  0  0  0  0  0  0  0  0  0  0
    0.0000   -2.4750    0.0000 C   0  0  0  0  0  0  0  0  0  0  0  0
   -0.7145   -2.8875    0.0000 C   0  0  0  0  0  0  0  0  0  0  0  0
   -1.4289   -2.4750    0.0000 C   0  0  0  0  0  0  0  0  0  0  0  0
    0.7145   -2.8875    0.0000 N   0  0  0  0  0  0  0  0  0  0  0  0
    1.4289   -2.4750    0.0000 C   0  0  0  0  0  0  0  0  0  0  0  0
    1.4289   -1.6500    0.0000 O   0  0  0  0  0  0  0  0  0  0  0  0
    2.1434   -2.8875    0.0000 C   0  0  0  0  0  0  0  0  0  0  0  0
    2.8579   -2.4750    0.0000 C   0  0  0  0  0  0  0  0  0  0  0  0
    3.5724   -2.8875    0.0000 N   0  0  0  0  0  0  0  0  0  0  0  0
    4.2868   -2.4750    0.0000 C   0  0  0  0  0  0  0  0  0  0  0  0
    5.0013   -2.8875    0.0000 C   0  0  0  0  0  0  0  0  0  0  0  0
    5.0013   -3.7125    0.0000 C   0  0  0  0  0  0  0  0  0  0  0  0
    5.7158   -4.1250    0.0000 O   0  0  0  0  0  0  0  0  0  0  0  0
    4.2868   -4.1250    0.0000 N   0  0  0  0  0  0  0  0  0  0  0  0
    3.5724   -3.7125    0.0000 C   0  0  0  0  0  0  0  0  0  0  0  0
    2.8579   -4.1250    0.0000 O   0  0  0  0  0  0  0  0  0  0  0  0
  1  2  1  0  0  0  0
  2  3  1  0  0  0  0
  3  4  2  0  0  0  0
  4  5  1  0  0  0  0
  5  6  1  0  0  0  0
  2  6  2  0  0  0  0
  6  7  1  0  0  0  0
  5  8  1  0  0  0  0
  8  9  1  0  0  0  0
  9 10  2  0  0  0  0
 10 11  1  0  0  0  0
 11 12  2  0  0  0  0
 12 13  1  0  0  0  0
  8 13  2  0  0  0  0
 11 14  1  0  0  0  0
 14 15  1  0  0  0  0
 15 16  2  0  0  0  0
 15 17  1  0  0  0  0
 17 18  1  0  0  0  0
 18 19  1  0  0  0  0
 19 20  1  0  0  0  0
 20 21  2  0  0  0  0
 21 22  1  0  0  0  0
 22 23  2  0  0  0  0
 22 24  1  0  0  0  0
 24 25  1  0  0  0  0
 19 25  1  0  0  0  0
 25 26  2  0  0  0  0
M  END
>  <Catalog ID>
Z5183299388

>  <Plate_ID>
2026983-X50-04

>  <Well>
B07

>  <V, µL>
50

>  <Conc, mM>
10

>  <Formula>
C18H19N5O3

>  <MW>
353.3752

>  <Purity>
100

>  <PO>
5A-64168

>  <MW_salt>
0

>  <Stereochem.data>
Achiral

>  <Geometric.isomer>
None

>  <Chemical name>
N-[4-(4,5-dimethyl-1H-imidazol-1-yl)phenyl]-3-(2,4-dioxo-1,2,3,4-tetrahydropyrimidin-1-yl)propanamide

>  <ClogP>
0,952

>  <logS>
-3,134

>  <HBD>
2

>  <HBA>
4

>  <TPSA>
96,33

>  <RotBonds>
5

$$$$

  Mrv1925 04172511352D          

 30 33  0  0  1  0            999 V2000
    4.8908    6.0620    0.0000 C   0  0  0  0  0  0  0  0  0  0  0  0
    4.4059    5.3945    0.0000 C   0  0  0  0  0  0  0  0  0  0  0  0
    4.6608    4.6099    0.0000 C   0  0  0  0  0  0  0  0  0  0  0  0
    3.9934    4.1250    0.0000 C   0  0  0  0  0  0  0  0  0  0  0  0
    3.3260    4.6099    0.0000 C   0  0  0  0  0  0  0  0  0  0  0  0
    2.5413    4.3550    0.0000 C   0  0  0  0  0  0  0  0  0  0  0  0
    3.5809    5.3945    0.0000 O   0  0  0  0  0  0  0  0  0  0  0  0
    3.9934    3.3000    0.0000 C   0  0  0  0  0  0  0  0  0  0  0  0
    3.1684    3.3000    0.0000 C   0  0  0  0  0  0  0  0  0  0  0  0
    4.8184    3.3000    0.0000 O   0  0  0  0  0  0  0  0  0  0  0  0
    3.9934    2.4750    0.0000 C   0  0  0  0  0  0  0  0  0  0  0  0
    3.2789    2.0625    0.0000 N   0  0  0  0  0  0  0  0  0  0  0  0
    3.2789    1.2375    0.0000 C   0  0  0  0  0  0  0  0  0  0  0  0
    3.9934    0.8250    0.0000 N   0  0  0  0  0  0  0  0  0  0  0  0
    3.9934    0.0000    0.0000 C   0  0  0  0  0  0  0  0  0  0  0  0
    3.2789   -0.4125    0.0000 N   0  0  0  0  0  0  0  0  0  0  0  0
    2.5645    0.0000    0.0000 C   0  0  0  0  0  0  0  0  0  0  0  0
    2.5645    0.8250    0.0000 C   0  0  0  0  0  0  0  0  0  0  0  0
    1.7798    1.0799    0.0000 N   0  0  0  0  0  0  0  0  0  0  0  0
    1.2949    0.4125    0.0000 C   0  0  0  0  0  0  0  0  0  0  0  0
    1.7798   -0.2549    0.0000 N   0  0  0  0  0  0  0  0  0  0  0  0
    1.5249   -1.0396    0.0000 C   0  0  2  0  0  0  0  0  0  0  0  0
    2.0098   -1.7070    0.0000 O   0  0  0  0  0  0  0  0  0  0  0  0
    1.5249   -2.3744    0.0000 C   0  0  2  0  0  0  0  0  0  0  0  0
    1.7798   -3.1591    0.0000 C   0  0  0  0  0  0  0  0  0  0  0  0
    2.5868   -3.3306    0.0000 O   0  0  0  0  0  0  0  0  0  0  0  0
    0.7403   -2.1195    0.0000 C   0  0  1  0  0  0  0  0  0  0  0  0
    0.0728   -2.6044    0.0000 O   0  0  0  0  0  0  0  0  0  0  0  0
    0.7403   -1.2945    0.0000 C   0  0  1  0  0  0  0  0  0  0  0  0
    0.0728   -0.8096    0.0000 O   0  0  0  0  0  0  0  0  0  0  0  0
  1  2  1  0  0  0  0
  2  3  2  0  0  0  0
  3  4  1  0  0  0  0
  4  5  2  0  0  0  0
  5  6  1  0  0  0  0
  5  7  1  0  0  0  0
  2  7  1  0  0  0  0
  4  8  1  0  0  0  0
  8  9  1  0  0  0  0
  8 10  1  0  0  0  0
  8 11  1  0  0  0  0
 11 12  1  0  0  0  0
 12 13  1  0  0  0  0
 13 14  1  0  0  0  0
 14 15  2  0  0  0  0
 15 16  1  0  0  0  0
 16 17  2  0  0  0  0
 17 18  1  0  0  0  0
 13 18  2  0  0  0  0
 18 19  1  0  0  0  0
 19 20  2  0  0  0  0
 20 21  1  0  0  0  0
 17 21  1  0  0  0  0
 22 21  1  6  0  0  0
 22 23  1  0  0  0  0
 24 23  1  0  0  0  0
 24 25  1  6  0  0  0
 25 26  1  0  0  0  0
 27 24  1  0  0  0  0
 27 28  1  1  0  0  0
 27 29  1  0  0  0  0
 29 22  1  0  0  0  0
 29 30  1  1  0  0  0
M  END
>  <Catalog ID>
Z1980981182

>  <Plate_ID>
2026983-X50-04

>  <Well>
C07

>  <V, µL>
50

>  <Conc, mM>
10

>  <Formula>
C19H25N5O6

>  <MW>
419.4317

>  <Purity>
100

>  <PO>
5A-64168

>  <MW_salt>
0

>  <Stereochem.data>
Diastereomeric mixture

>  <Geometric.isomer>
None

>  <Chemical name>
(2R,3R,4S,5R)-2-(6-{[2-(2,5-dimethylfuran-3-yl)-2-hydroxypropyl]amino}-9H-purin-9-yl)-5-(hydroxymethyl)oxolane-3,4-diol

>  <ClogP>
0,002

>  <logS>
-2,582

>  <HBD>
5

>  <HBA>
9

>  <TPSA>
158,92

>  <RotBonds>
6

$$$$

  Mrv1925 04172511352D          

 30 34  0  0  0  0            999 V2000
    2.0701   -1.1104    0.0000 C   0  0  0  0  0  0  0  0  0  0  0  0
    2.7845   -1.5229    0.0000 C   0  0  0  0  0  0  0  0  0  0  0  0
    3.4990   -1.1104    0.0000 C   0  0  0  0  0  0  0  0  0  0  0  0
    3.4990   -0.2854    0.0000 C   0  0  0  0  0  0  0  0  0  0  0  0
    4.2135    0.1271    0.0000 N   0  0  0  0  0  0  0  0  0  0  0  0
    4.2135    0.9521    0.0000 C   0  0  0  0  0  0  0  0  0  0  0  0
    4.9279    1.3646    0.0000 C   0  0  0  0  0  0  0  0  0  0  0  0
    5.6424    0.9521    0.0000 C   0  0  0  0  0  0  0  0  0  0  0  0
    5.6424    0.1271    0.0000 C   0  0  0  0  0  0  0  0  0  0  0  0
    4.9279   -0.2854    0.0000 C   0  0  0  0  0  0  0  0  0  0  0  0
    4.9279   -1.1104    0.0000 C   0  0  0  0  0  0  0  0  0  0  0  0
    4.2135   -1.5229    0.0000 N   0  0  0  0  0  0  0  0  0  0  0  0
    4.2135   -2.3479    0.0000 C   0  0  0  0  0  0  0  0  0  0  0  0
    4.9279   -2.7604    0.0000 N   0  0  0  0  0  0  0  0  0  0  0  0
    4.9279   -3.5854    0.0000 C   0  0  0  0  0  0  0  0  0  0  0  0
    4.2135   -3.9979    0.0000 N   0  0  0  0  0  0  0  0  0  0  0  0
    3.4990   -3.5854    0.0000 C   0  0  0  0  0  0  0  0  0  0  0  0
    3.4990   -2.7604    0.0000 C   0  0  0  0  0  0  0  0  0  0  0  0
    2.7144   -2.5055    0.0000 N   0  0  0  0  0  0  0  0  0  0  0  0
    2.2295   -3.1729    0.0000 C   0  0  0  0  0  0  0  0  0  0  0  0
    2.7144   -3.8404    0.0000 N   0  0  0  0  0  0  0  0  0  0  0  0
    2.4594   -4.6250    0.0000 C   0  0  0  0  0  0  0  0  0  0  0  0
    3.0115   -5.2381    0.0000 C   0  0  0  0  0  0  0  0  0  0  0  0
    2.3118   -5.6753    0.0000 C   0  0  0  0  0  0  0  0  0  0  0  0
    2.3406   -6.4998    0.0000 O   0  0  0  0  0  0  0  0  0  0  0  0
    3.5194   -4.5880    0.0000 C   0  0  0  0  0  0  0  0  0  0  0  0
    4.3364   -4.7028    0.0000 C   0  0  0  0  0  0  0  0  0  0  0  0
    4.6454   -5.4677    0.0000 O   0  0  0  0  0  0  0  0  0  0  0  0
    4.1375   -6.1178    0.0000 C   0  0  0  0  0  0  0  0  0  0  0  0
    3.3205   -6.0030    0.0000 C   0  0  0  0  0  0  0  0  0  0  0  0
  1  2  1  0  0  0  0
  2  3  1  0  0  0  0
  3  4  1  0  0  0  0
  4  5  1  0  0  0  0
  5  6  1  0  0  0  0
  6  7  1  0  0  0  0
  7  8  1  0  0  0  0
  8  9  1  0  0  0  0
  9 10  1  0  0  0  0
  5 10  1  0  0  0  0
 10 11  1  0  0  0  0
 11 12  1  0  0  0  0
  3 12  1  0  0  0  0
 12 13  1  0  0  0  0
 13 14  1  0  0  0  0
 14 15  2  0  0  0  0
 15 16  1  0  0  0  0
 16 17  2  0  0  0  0
 17 18  1  0  0  0  0
 13 18  2  0  0  0  0
 18 19  1  0  0  0  0
 19 20  2  0  0  0  0
 20 21  1  0  0  0  0
 17 21  1  0  0  0  0
 21 22  1  0  0  0  0
 22 23  1  0  0  0  0
 23 24  1  0  0  0  0
 24 25  1  0  0  0  0
 23 26  1  0  0  0  0
 26 27  1  0  0  0  0
 27 28  1  0  0  0  0
 28 29  1  0  0  0  0
 29 30  1  0  0  0  0
 23 30  1  0  0  0  0
M  END
>  <Catalog ID>
Z2760952378

>  <Plate_ID>
2026983-X50-04

>  <Well>
D07

>  <V, µL>
50

>  <Conc, mM>
10

>  <Formula>
C22H34N6O2

>  <MW>
414.5444

>  <Purity>
97

>  <PO>
5A-64168

>  <MW_salt>
0

>  <Stereochem.data>
Diastereomeric mixture

>  <Geometric.isomer>
Unequal mixture of geometric isomers

>  <Chemical name>
{4-[(6-{3-ethyl-octahydro-1H-pyrido[1,2-a]pyrazin-2-yl}-9H-purin-9-yl)methyl]oxan-4-yl}methanol

>  <ClogP>
1,369

>  <logS>
-2,789

>  <HBD>
1

>  <HBA>
7

>  <TPSA>
79,54

>  <RotBonds>
5

$$$$

  Mrv1925 04172511352D          

 18 19  0  0  0  0            999 V2000
   -0.6078   -1.2991    0.0000 C   0  0  0  0  0  0  0  0  0  0  0  0
   -1.3222   -1.7116    0.0000 N   0  0  0  0  0  0  0  0  0  0  0  0
   -2.0367   -1.2991    0.0000 C   0  0  0  0  0  0  0  0  0  0  0  0
   -2.7512   -1.7116    0.0000 O   0  0  0  0  0  0  0  0  0  0  0  0
   -2.0367   -0.4741    0.0000 C   0  0  0  0  0  0  0  0  0  0  0  0
   -2.7512   -0.0616    0.0000 N   0  0  0  0  0  0  0  0  0  0  0  0
   -3.4656   -0.4741    0.0000 C   0  0  0  0  0  0  0  0  0  0  0  0
   -4.1801   -0.0616    0.0000 C   0  0  0  0  0  0  0  0  0  0  0  0
   -4.1801    0.7634    0.0000 C   0  0  0  0  0  0  0  0  0  0  0  0
   -4.8946    1.1759    0.0000 O   0  0  0  0  0  0  0  0  0  0  0  0
   -3.4656    1.1759    0.0000 N   0  0  0  0  0  0  0  0  0  0  0  0
   -2.7512    0.7634    0.0000 C   0  0  0  0  0  0  0  0  0  0  0  0
   -2.0367    1.1759    0.0000 O   0  0  0  0  0  0  0  0  0  0  0  0
   -1.3222   -2.5366    0.0000 C   0  0  0  0  0  0  0  0  0  0  0  0
   -0.6548   -3.0215    0.0000 C   0  0  0  0  0  0  0  0  0  0  0  0
   -0.9097   -3.8062    0.0000 C   0  0  0  0  0  0  0  0  0  0  0  0
   -1.7347   -3.8062    0.0000 C   0  0  0  0  0  0  0  0  0  0  0  0
   -1.9897   -3.0215    0.0000 C   0  0  0  0  0  0  0  0  0  0  0  0
  1  2  1  0  0  0  0
  2  3  1  0  0  0  0
  3  4  2  0  0  0  0
  3  5  1  0  0  0  0
  5  6  1  0  0  0  0
  6  7  1  0  0  0  0
  7  8  2  0  0  0  0
  8  9  1  0  0  0  0
  9 10  2  0  0  0  0
  9 11  1  0  0  0  0
 11 12  1  0  0  0  0
  6 12  1  0  0  0  0
 12 13  2  0  0  0  0
  2 14  1  0  0  0  0
 14 15  1  0  0  0  0
 15 16  1  0  0  0  0
 16 17  1  0  0  0  0
 17 18  1  0  0  0  0
 14 18  1  0  0  0  0
M  END
>  <Catalog ID>
Z191832368

>  <Plate_ID>
2026983-X50-04

>  <Well>
E07

>  <V, µL>
50

>  <Conc, mM>
10

>  <Formula>
C12H17N3O3

>  <MW>
251.2817

>  <Purity>
100

>  <PO>
5A-64168

>  <MW_salt>
0

>  <Stereochem.data>
Achiral

>  <Geometric.isomer>
None

>  <Chemical name>
N-cyclopentyl-2-(2,4-dioxo-1,2,3,4-tetrahydropyrimidin-1-yl)-N-methylacetamide

>  <ClogP>
0,161

>  <logS>
-1,951

>  <HBD>
1

>  <HBA>
3

>  <TPSA>
69,72

>  <RotBonds>
3

$$$$

  Mrv1925 04172511352D          

 22 23  0  0  0  0            999 V2000
    3.3882   -1.8430    0.0000 C   0  0  0  0  0  0  0  0  0  0  0  0
    2.8579   -2.4750    0.0000 C   0  0  0  0  0  0  0  0  0  0  0  0
    2.3276   -1.8430    0.0000 C   0  0  0  0  0  0  0  0  0  0  0  0
    3.5724   -2.8875    0.0000 C   0  0  0  0  0  0  0  0  0  0  0  0
    3.5724   -3.7125    0.0000 C   0  0  0  0  0  0  0  0  0  0  0  0
    2.8579   -4.1250    0.0000 N   0  0  0  0  0  0  0  0  0  0  0  0
    2.1434   -3.7125    0.0000 C   0  0  0  0  0  0  0  0  0  0  0  0
    2.1434   -2.8875    0.0000 C   0  0  0  0  0  0  0  0  0  0  0  0
    2.8579   -4.9500    0.0000 C   0  0  0  0  0  0  0  0  0  0  0  0
    3.5724   -5.3625    0.0000 O   0  0  0  0  0  0  0  0  0  0  0  0
    2.1434   -5.3625    0.0000 C   0  0  0  0  0  0  0  0  0  0  0  0
    2.1434   -6.1875    0.0000 C   0  0  0  0  0  0  0  0  0  0  0  0
    1.4289   -6.6000    0.0000 N   0  0  0  0  0  0  0  0  0  0  0  0
    1.4289   -7.4250    0.0000 C   0  0  0  0  0  0  0  0  0  0  0  0
    0.7145   -7.8375    0.0000 C   0  0  0  0  0  0  0  0  0  0  0  0
    0.7145   -8.6625    0.0000 C   0  0  0  0  0  0  0  0  0  0  0  0
    0.7145   -9.4875    0.0000 N   0  0  0  0  0  0  0  0  0  0  0  0
    0.0000   -7.4250    0.0000 C   0  0  0  0  0  0  0  0  0  0  0  0
   -0.7145   -7.8375    0.0000 O   0  0  0  0  0  0  0  0  0  0  0  0
    0.0000   -6.6000    0.0000 N   0  0  0  0  0  0  0  0  0  0  0  0
    0.7145   -6.1875    0.0000 C   0  0  0  0  0  0  0  0  0  0  0  0
    0.7145   -5.3625    0.0000 O   0  0  0  0  0  0  0  0  0  0  0  0
  1  2  1  0  0  0  0
  2  3  1  0  0  0  0
  2  4  1  0  0  0  0
  4  5  1  0  0  0  0
  5  6  1  0  0  0  0
  6  7  1  0  0  0  0
  7  8  1  0  0  0  0
  2  8  1  0  0  0  0
  6  9  1  0  0  0  0
  9 10  2  0  0  0  0
  9 11  1  0  0  0  0
 11 12  1  0  0  0  0
 12 13  1  0  0  0  0
 13 14  1  0  0  0  0
 14 15  2  0  0  0  0
 15 16  1  0  0  0  0
 16 17  3  0  0  0  0
 15 18  1  0  0  0  0
 18 19  2  0  0  0  0
 18 20  1  0  0  0  0
 20 21  1  0  0  0  0
 13 21  1  0  0  0  0
 21 22  2  0  0  0  0
M  END
>  <Catalog ID>
Z2798182421

>  <Plate_ID>
2026983-X50-04

>  <Well>
F07

>  <V, µL>
50

>  <Conc, mM>
10

>  <Formula>
C15H20N4O3

>  <MW>
304.3443

>  <Purity>
100

>  <PO>
5A-64168

>  <MW_salt>
0

>  <Stereochem.data>
Achiral

>  <Geometric.isomer>
None

>  <Chemical name>
1-[3-(4,4-dimethylpiperidin-1-yl)-3-oxopropyl]-2,4-dioxo-1,2,3,4-tetrahydropyrimidine-5-carbonitrile

>  <ClogP>
0,808

>  <logS>
-2,633

>  <HBD>
1

>  <HBA>
4

>  <TPSA>
93,51

>  <RotBonds>
3

$$$$

  Mrv1925 04172511352D          

 22 23  0  0  0  0            999 V2000
    2.8579   -1.6500    0.0000 C   0  0  0  0  0  0  0  0  0  0  0  0
    2.8579   -2.4750    0.0000 C   0  0  0  0  0  0  0  0  0  0  0  0
    3.5724   -2.8875    0.0000 C   0  0  0  0  0  0  0  0  0  0  0  0
    3.5724   -3.7125    0.0000 C   0  0  0  0  0  0  0  0  0  0  0  0
    2.8579   -4.1250    0.0000 C   0  0  0  0  0  0  0  0  0  0  0  0
    2.1434   -3.7125    0.0000 N   0  0  0  0  0  0  0  0  0  0  0  0
    2.1434   -2.8875    0.0000 C   0  0  0  0  0  0  0  0  0  0  0  0
    1.4289   -4.1250    0.0000 C   0  0  0  0  0  0  0  0  0  0  0  0
    1.4289   -4.9500    0.0000 O   0  0  0  0  0  0  0  0  0  0  0  0
    0.7145   -3.7125    0.0000 N   0  0  0  0  0  0  0  0  0  0  0  0
    0.0000   -4.1250    0.0000 C   0  0  0  0  0  0  0  0  0  0  0  0
   -0.7145   -3.7125    0.0000 C   0  0  0  0  0  0  0  0  0  0  0  0
   -1.4289   -4.1250    0.0000 C   0  0  0  0  0  0  0  0  0  0  0  0
   -2.1434   -3.7125    0.0000 N   0  0  0  0  0  0  0  0  0  0  0  0
   -2.1434   -2.8875    0.0000 C   0  0  0  0  0  0  0  0  0  0  0  0
   -2.8579   -2.4750    0.0000 O   0  0  0  0  0  0  0  0  0  0  0  0
   -1.4289   -2.4750    0.0000 N   0  0  0  0  0  0  0  0  0  0  0  0
   -0.7145   -2.8875    0.0000 C   0  0  0  0  0  0  0  0  0  0  0  0
    0.0000   -2.4750    0.0000 O   0  0  0  0  0  0  0  0  0  0  0  0
   -2.8579   -4.1250    0.0000 C   0  0  0  0  0  0  0  0  0  0  0  0
   -3.5724   -3.7125    0.0000 C   0  0  0  0  0  0  0  0  0  0  0  0
   -2.8579   -4.9500    0.0000 C   0  0  0  0  0  0  0  0  0  0  0  0
  1  2  1  0  0  0  0
  2  3  2  0  0  0  0
  3  4  1  0  0  0  0
  4  5  1  0  0  0  0
  5  6  1  0  0  0  0
  6  7  1  0  0  0  0
  2  7  1  0  0  0  0
  6  8  1  0  0  0  0
  8  9  2  0  0  0  0
  8 10  1  0  0  0  0
 10 11  1  0  0  0  0
 11 12  1  0  0  0  0
 12 13  2  0  0  0  0
 13 14  1  0  0  0  0
 14 15  1  0  0  0  0
 15 16  2  0  0  0  0
 15 17  1  0  0  0  0
 17 18  1  0  0  0  0
 12 18  1  0  0  0  0
 18 19  2  0  0  0  0
 14 20  1  0  0  0  0
 20 21  1  0  0  0  0
 20 22  1  0  0  0  0
M  END
>  <Catalog ID>
Z3141238997

>  <Plate_ID>
2026983-X50-04

>  <Well>
G07

>  <V, µL>
50

>  <Conc, mM>
10

>  <Formula>
C15H22N4O3

>  <MW>
306.3602

>  <Purity>
100

>  <PO>
5A-64168

>  <MW_salt>
0

>  <Stereochem.data>
Achiral

>  <Geometric.isomer>
None

>  <Chemical name>
N-{[2,4-dioxo-1-(propan-2-yl)-1,2,3,4-tetrahydropyrimidin-5-yl]methyl}-5-methyl-1,2,3,6-tetrahydropyridine-1-carboxamide

>  <ClogP>
0,2

>  <logS>
-2,376

>  <HBD>
2

>  <HBA>
3

>  <TPSA>
81,75

>  <RotBonds>
3

$$$$

  Mrv1925 04172511352D          

 25 28  0  0  0  0            999 V2000
    0.7145   -1.2375    0.0000 O   0  0  0  0  0  0  0  0  0  0  0  0
    0.7145   -0.4125    0.0000 C   0  0  0  0  0  0  0  0  0  0  0  0
   -0.0000   -0.0000    0.0000 C   0  0  0  0  0  0  0  0  0  0  0  0
   -0.7846   -0.2549    0.0000 N   0  0  0  0  0  0  0  0  0  0  0  0
   -1.2695    0.4125    0.0000 C   0  0  0  0  0  0  0  0  0  0  0  0
   -0.7846    1.0799    0.0000 N   0  0  0  0  0  0  0  0  0  0  0  0
   -1.0396    1.8646    0.0000 C   0  0  0  0  0  0  0  0  0  0  0  0
   -1.8465    2.0361    0.0000 C   0  0  0  0  0  0  0  0  0  0  0  0
   -2.1015    2.8207    0.0000 C   0  0  0  0  0  0  0  0  0  0  0  0
   -1.5494    3.4338    0.0000 C   0  0  0  0  0  0  0  0  0  0  0  0
   -0.7425    3.2623    0.0000 C   0  0  0  0  0  0  0  0  0  0  0  0
   -0.4875    2.4777    0.0000 C   0  0  0  0  0  0  0  0  0  0  0  0
    0.0000    0.8250    0.0000 C   0  0  0  0  0  0  0  0  0  0  0  0
    0.7145    1.2375    0.0000 N   0  0  0  0  0  0  0  0  0  0  0  0
    1.4289    0.8250    0.0000 C   0  0  0  0  0  0  0  0  0  0  0  0
    1.4289    0.0000    0.0000 N   0  0  0  0  0  0  0  0  0  0  0  0
    2.1434   -0.4125    0.0000 C   0  0  0  0  0  0  0  0  0  0  0  0
    2.1434   -1.2375    0.0000 C   0  0  0  0  0  0  0  0  0  0  0  0
    1.4289   -1.6500    0.0000 O   0  0  0  0  0  0  0  0  0  0  0  0
    2.8579   -1.6500    0.0000 C   0  0  0  0  0  0  0  0  0  0  0  0
    2.3730   -2.3174    0.0000 O   0  0  0  0  0  0  0  0  0  0  0  0
    3.1934   -0.8963    0.0000 C   0  0  0  0  0  0  0  0  0  0  0  0
    4.0139   -0.9826    0.0000 C   0  0  0  0  0  0  0  0  0  0  0  0
    4.1854   -1.7895    0.0000 C   0  0  0  0  0  0  0  0  0  0  0  0
    3.4710   -2.2020    0.0000 C   0  0  0  0  0  0  0  0  0  0  0  0
  1  2  2  0  0  0  0
  2  3  1  0  0  0  0
  3  4  1  0  0  0  0
  4  5  2  0  0  0  0
  5  6  1  0  0  0  0
  6  7  1  0  0  0  0
  7  8  1  0  0  0  0
  8  9  2  0  0  0  0
  9 10  1  0  0  0  0
 10 11  2  0  0  0  0
 11 12  1  0  0  0  0
  7 12  2  0  0  0  0
  6 13  1  0  0  0  0
  3 13  2  0  0  0  0
 13 14  1  0  0  0  0
 14 15  2  0  0  0  0
 15 16  1  0  0  0  0
  2 16  1  0  0  0  0
 16 17  1  0  0  0  0
 17 18  1  0  0  0  0
 18 19  1  0  0  0  0
 18 20  1  0  0  0  0
 20 21  1  0  0  0  0
 20 22  1  0  0  0  0
 22 23  1  0  0  0  0
 23 24  1  0  0  0  0
 24 25  1  0  0  0  0
 20 25  1  0  0  0  0
M  END
>  <Catalog ID>
Z2983032607

>  <Plate_ID>
2026983-X50-04

>  <Well>
H07

>  <V, µL>
50

>  <Conc, mM>
10

>  <Formula>
C18H20N4O3

>  <MW>
340.3764

>  <Purity>
100

>  <PO>
5A-64168

>  <MW_salt>
0

>  <Stereochem.data>
Racemic or presumed racemic or meso

>  <Geometric.isomer>
None

>  <Chemical name>
1-[2-hydroxy-2-(1-hydroxycyclopentyl)ethyl]-9-phenyl-6,9-dihydro-1H-purin-6-one

>  <ClogP>
1,616

>  <logS>
-3,757

>  <HBD>
2

>  <HBA>
5

>  <TPSA>
90,95

>  <RotBonds>
4

$$$$

  Mrv1925 04172511352D          

 27 31  0  0  1  0            999 V2000
    2.1990    4.8311    0.0000 O   0  0  0  0  0  0  0  0  0  0  0  0
    2.6115    4.1167    0.0000 S   0  0  0  0  0  0  0  0  0  0  0  0
    1.8578    3.7811    0.0000 O   0  0  0  0  0  0  0  0  0  0  0  0
    3.2789    4.6016    0.0000 C   0  0  0  0  0  0  0  0  0  0  0  0
    3.9464    4.1167    0.0000 C   0  0  0  0  0  0  0  0  0  0  0  0
    3.6914    3.3320    0.0000 C   0  0  1  0  0  0  0  0  0  0  0  0
    3.9464    2.5474    0.0000 C   0  0  0  0  0  0  0  0  0  0  0  0
    3.2789    2.0625    0.0000 N   0  0  0  0  0  0  0  0  0  0  0  0
    2.6115    2.5474    0.0000 C   0  0  0  0  0  0  0  0  0  0  0  0
    2.8664    3.3320    0.0000 C   0  0  1  0  0  0  0  0  0  0  0  0
    3.2789    1.2375    0.0000 C   0  0  0  0  0  0  0  0  0  0  0  0
    3.9934    0.8250    0.0000 N   0  0  0  0  0  0  0  0  0  0  0  0
    3.9934    0.0000    0.0000 C   0  0  0  0  0  0  0  0  0  0  0  0
    3.2789   -0.4125    0.0000 N   0  0  0  0  0  0  0  0  0  0  0  0
    2.5645    0.0000    0.0000 C   0  0  0  0  0  0  0  0  0  0  0  0
    2.5645    0.8250    0.0000 C   0  0  0  0  0  0  0  0  0  0  0  0
    1.7798    1.0799    0.0000 N   0  0  0  0  0  0  0  0  0  0  0  0
    1.2949    0.4125    0.0000 C   0  0  0  0  0  0  0  0  0  0  0  0
    1.7798   -0.2549    0.0000 N   0  0  0  0  0  0  0  0  0  0  0  0
    1.5249   -1.0396    0.0000 C   0  0  0  0  0  0  0  0  0  0  0  0
    1.8994   -1.7746    0.0000 C   0  0  0  0  0  0  0  0  0  0  0  0
    1.1644   -2.1492    0.0000 C   0  0  0  0  0  0  0  0  0  0  0  0
    1.5389   -2.8843    0.0000 C   0  0  0  0  0  0  0  0  0  0  0  0
    2.3628   -2.9274    0.0000 O   0  0  0  0  0  0  0  0  0  0  0  0
    0.4293   -2.5237    0.0000 C   0  0  0  0  0  0  0  0  0  0  0  0
   -0.2626   -2.0744    0.0000 O   0  0  0  0  0  0  0  0  0  0  0  0
    0.7898   -1.4141    0.0000 C   0  0  0  0  0  0  0  0  0  0  0  0
  1  2  2  0  0  0  0
  2  3  2  0  0  0  0
  2  4  1  0  0  0  0
  4  5  1  0  0  0  0
  6  5  1  1  0  0  0
  6  7  1  0  0  0  0
  7  8  1  0  0  0  0
  8  9  1  0  0  0  0
 10  9  1  1  0  0  0
  6 10  1  0  0  0  0
 10  2  1  0  0  0  0
  8 11  1  0  0  0  0
 11 12  1  0  0  0  0
 12 13  2  0  0  0  0
 13 14  1  0  0  0  0
 14 15  2  0  0  0  0
 15 16  1  0  0  0  0
 11 16  2  0  0  0  0
 16 17  1  0  0  0  0
 17 18  2  0  0  0  0
 18 19  1  0  0  0  0
 15 19  1  0  0  0  0
 19 20  1  0  0  0  0
 20 21  1  0  0  0  0
 21 22  1  0  0  0  0
 22 23  1  0  0  0  0
 23 24  1  0  0  0  0
 22 25  1  0  0  0  0
 25 26  1  0  0  0  0
 22 27  1  0  0  0  0
 20 27  1  0  0  0  0
M  END
>  <Catalog ID>
Z2760969095

>  <Plate_ID>
2026983-X50-04

>  <Well>
A08

>  <V, µL>
50

>  <Conc, mM>
10

>  <Formula>
C17H23N5O4S

>  <MW>
393.4606

>  <Purity>
99

>  <PO>
5A-64168

>  <MW_salt>
0

>  <Stereochem.data>
Single known enantiomer

>  <Geometric.isomer>
None

>  <Chemical name>
(3aS,6aS)-5-{9-[3,3-bis(hydroxymethyl)cyclobutyl]-9H-purin-6-yl}-hexahydro-2H-1lambda6-thieno[2,3-c]pyrrole-1,1-dione

>  <ClogP>
-2,484

>  <logS>
-1,758

>  <HBD>
2

>  <HBA>
8

>  <TPSA>
121,44

>  <RotBonds>
4

$$$$

  Mrv1925 04172511352D          

 29 32  0  0  0  0            999 V2000
    2.5645    2.4750    0.0000 C   0  0  0  0  0  0  0  0  0  0  0  0
    3.2789    2.0625    0.0000 N   0  0  0  0  0  0  0  0  0  0  0  0
    3.9934    2.4750    0.0000 C   0  0  0  0  0  0  0  0  0  0  0  0
    3.9934    3.3000    0.0000 C   0  0  0  0  0  0  0  0  0  0  0  0
    4.7079    3.7125    0.0000 C   0  0  0  0  0  0  0  0  0  0  0  0
    4.7079    4.5375    0.0000 C   0  0  0  0  0  0  0  0  0  0  0  0
    5.4223    4.9500    0.0000 C   0  0  0  0  0  0  0  0  0  0  0  0
    6.1368    4.5375    0.0000 C   0  0  0  0  0  0  0  0  0  0  0  0
    6.1368    3.7125    0.0000 C   0  0  0  0  0  0  0  0  0  0  0  0
    5.4223    3.3000    0.0000 N   0  0  0  0  0  0  0  0  0  0  0  0
    5.4223    2.4750    0.0000 C   0  0  0  0  0  0  0  0  0  0  0  0
    3.2789    1.2375    0.0000 C   0  0  0  0  0  0  0  0  0  0  0  0
    3.9934    0.8250    0.0000 N   0  0  0  0  0  0  0  0  0  0  0  0
    3.9934    0.0000    0.0000 C   0  0  0  0  0  0  0  0  0  0  0  0
    3.2789   -0.4125    0.0000 N   0  0  0  0  0  0  0  0  0  0  0  0
    2.5645    0.0000    0.0000 C   0  0  0  0  0  0  0  0  0  0  0  0
    2.5645    0.8250    0.0000 C   0  0  0  0  0  0  0  0  0  0  0  0
    1.7798    1.0799    0.0000 N   0  0  0  0  0  0  0  0  0  0  0  0
    1.2949    0.4125    0.0000 C   0  0  0  0  0  0  0  0  0  0  0  0
    1.7798   -0.2549    0.0000 N   0  0  0  0  0  0  0  0  0  0  0  0
    1.5249   -1.0396    0.0000 C   0  0  0  0  0  0  0  0  0  0  0  0
    2.0769   -1.6527    0.0000 C   0  0  0  0  0  0  0  0  0  0  0  0
    1.3773   -2.0898    0.0000 C   0  0  0  0  0  0  0  0  0  0  0  0
    1.4061   -2.9143    0.0000 O   0  0  0  0  0  0  0  0  0  0  0  0
    2.5848   -1.0025    0.0000 C   0  0  0  0  0  0  0  0  0  0  0  0
    3.4018   -1.1174    0.0000 C   0  0  0  0  0  0  0  0  0  0  0  0
    3.7109   -1.8823    0.0000 O   0  0  0  0  0  0  0  0  0  0  0  0
    3.2030   -2.5324    0.0000 C   0  0  0  0  0  0  0  0  0  0  0  0
    2.3860   -2.4176    0.0000 C   0  0  0  0  0  0  0  0  0  0  0  0
  1  2  1  0  0  0  0
  2  3  1  0  0  0  0
  3  4  1  0  0  0  0
  4  5  1  0  0  0  0
  5  6  1  0  0  0  0
  6  7  1  0  0  0  0
  7  8  1  0  0  0  0
  8  9  1  0  0  0  0
  9 10  1  0  0  0  0
  5 10  1  0  0  0  0
 10 11  1  0  0  0  0
  2 12  1  0  0  0  0
 12 13  1  0  0  0  0
 13 14  2  0  0  0  0
 14 15  1  0  0  0  0
 15 16  2  0  0  0  0
 16 17  1  0  0  0  0
 12 17  2  0  0  0  0
 17 18  1  0  0  0  0
 18 19  2  0  0  0  0
 19 20  1  0  0  0  0
 16 20  1  0  0  0  0
 20 21  1  0  0  0  0
 21 22  1  0  0  0  0
 22 23  1  0  0  0  0
 23 24  1  0  0  0  0
 22 25  1  0  0  0  0
 25 26  1  0  0  0  0
 26 27  1  0  0  0  0
 27 28  1  0  0  0  0
 28 29  1  0  0  0  0
 22 29  1  0  0  0  0
M  END
>  <Catalog ID>
Z2760950516

>  <Plate_ID>
2026983-X50-04

>  <Well>
B08

>  <V, µL>
50

>  <Conc, mM>
10

>  <Formula>
C21H34N6O2

>  <MW>
402.5337

>  <Purity>
100

>  <PO>
5A-64168

>  <MW_salt>
0

>  <Stereochem.data>
Racemic or presumed racemic or meso

>  <Geometric.isomer>
None

>  <Chemical name>
{4-[(6-{methyl[2-(1-methylpiperidin-2-yl)ethyl]amino}-9H-purin-9-yl)methyl]oxan-4-yl}methanol

>  <ClogP>
1,379

>  <logS>
-1,715

>  <HBD>
1

>  <HBA>
7

>  <TPSA>
79,54

>  <RotBonds>
7

$$$$

  Mrv1925 04172511352D          

 28 30  0  0  0  0            999 V2000
   -0.9845   -3.6671    0.0000 C   0  0  0  0  0  0  0  0  0  0  0  0
   -0.7145   -2.8875    0.0000 C   0  0  0  0  0  0  0  0  0  0  0  0
   -1.2546   -2.2639    0.0000 C   0  0  0  0  0  0  0  0  0  0  0  0
    0.0957   -2.7316    0.0000 C   0  0  0  0  0  0  0  0  0  0  0  0
    0.3657   -1.9520    0.0000 C   0  0  0  0  0  0  0  0  0  0  0  0
    1.1758   -1.7961    0.0000 N   0  0  0  0  0  0  0  0  0  0  0  0
    1.7159   -2.4198    0.0000 C   0  0  0  0  0  0  0  0  0  0  0  0
    2.5261   -2.2639    0.0000 C   0  0  0  0  0  0  0  0  0  0  0  0
    3.0662   -2.8875    0.0000 C   0  0  0  0  0  0  0  0  0  0  0  0
    3.6062   -3.5111    0.0000 N   0  0  0  0  0  0  0  0  0  0  0  0
    1.4459   -1.0166    0.0000 C   0  0  0  0  0  0  0  0  0  0  0  0
    0.9058   -0.3929    0.0000 N   0  0  0  0  0  0  0  0  0  0  0  0
    1.1758    0.3866    0.0000 C   0  0  0  0  0  0  0  0  0  0  0  0
    1.9860    0.5425    0.0000 N   0  0  0  0  0  0  0  0  0  0  0  0
    2.5261   -0.0811    0.0000 C   0  0  0  0  0  0  0  0  0  0  0  0
    2.2560   -0.8607    0.0000 C   0  0  0  0  0  0  0  0  0  0  0  0
    2.9140   -1.3584    0.0000 N   0  0  0  0  0  0  0  0  0  0  0  0
    3.5906   -0.8864    0.0000 C   0  0  0  0  0  0  0  0  0  0  0  0
    3.3509   -0.0970    0.0000 N   0  0  0  0  0  0  0  0  0  0  0  0
    3.8486    0.5609    0.0000 C   0  0  0  0  0  0  0  0  0  0  0  0
    3.5277    1.3209    0.0000 C   0  0  0  0  0  0  0  0  0  0  0  0
    2.7090    1.4230    0.0000 C   0  0  0  0  0  0  0  0  0  0  0  0
    2.3881    2.1830    0.0000 O   0  0  0  0  0  0  0  0  0  0  0  0
    4.0254    1.9789    0.0000 C   0  0  0  0  0  0  0  0  0  0  0  0
    3.7857    2.7683    0.0000 C   0  0  0  0  0  0  0  0  0  0  0  0
    4.4624    3.2402    0.0000 C   0  0  0  0  0  0  0  0  0  0  0  0
    5.1203    2.7425    0.0000 O   0  0  0  0  0  0  0  0  0  0  0  0
    4.8503    1.9629    0.0000 C   0  0  0  0  0  0  0  0  0  0  0  0
  1  2  1  0  0  0  0
  2  3  1  0  0  0  0
  2  4  1  0  0  0  0
  4  5  1  0  0  0  0
  5  6  1  0  0  0  0
  6  7  1  0  0  0  0
  7  8  1  0  0  0  0
  8  9  1  0  0  0  0
  9 10  3  0  0  0  0
  6 11  1  0  0  0  0
 11 12  1  0  0  0  0
 12 13  2  0  0  0  0
 13 14  1  0  0  0  0
 14 15  2  0  0  0  0
 15 16  1  0  0  0  0
 11 16  2  0  0  0  0
 16 17  1  0  0  0  0
 17 18  2  0  0  0  0
 18 19  1  0  0  0  0
 15 19  1  0  0  0  0
 19 20  1  0  0  0  0
 20 21  1  0  0  0  0
 21 22  1  0  0  0  0
 22 23  1  0  0  0  0
 21 24  1  0  0  0  0
 24 25  1  0  0  0  0
 25 26  1  0  0  0  0
 26 27  1  0  0  0  0
 27 28  1  0  0  0  0
 24 28  1  0  0  0  0
M  END
>  <Catalog ID>
Z2760944702

>  <Plate_ID>
2026983-X50-04

>  <Well>
C08

>  <V, µL>
50

>  <Conc, mM>
10

>  <Formula>
C20H30N6O2

>  <MW>
386.4912

>  <Purity>
100

>  <PO>
5A-64168

>  <MW_salt>
0

>  <Stereochem.data>
Diastereomeric mixture

>  <Geometric.isomer>
None

>  <Chemical name>
3-({9-[3-hydroxy-2-(oxolan-3-yl)propyl]-9H-purin-6-yl}(3-methylbutyl)amino)propanenitrile

>  <ClogP>
1,175

>  <logS>
-3,71

>  <HBD>
1

>  <HBA>
7

>  <TPSA>
100,09

>  <RotBonds>
10

$$$$

  Mrv1925 04172511352D          

 34 37  0  0  0  0            999 V2000
    0.6078    9.3027    0.0000 C   0  0  0  0  0  0  0  0  0  0  0  0
    0.6078    8.4777    0.0000 C   0  0  0  0  0  0  0  0  0  0  0  0
    1.3222    8.0652    0.0000 C   0  0  0  0  0  0  0  0  0  0  0  0
    1.3222    7.2402    0.0000 C   0  0  0  0  0  0  0  0  0  0  0  0
    0.6078    6.8277    0.0000 C   0  0  0  0  0  0  0  0  0  0  0  0
   -0.1067    7.2402    0.0000 C   0  0  0  0  0  0  0  0  0  0  0  0
   -0.1067    8.0652    0.0000 C   0  0  0  0  0  0  0  0  0  0  0  0
   -0.8212    8.4777    0.0000 S   0  0  0  0  0  0  0  0  0  0  0  0
   -1.2337    7.7632    0.0000 O   0  0  0  0  0  0  0  0  0  0  0  0
   -0.4087    9.1922    0.0000 O   0  0  0  0  0  0  0  0  0  0  0  0
   -1.5356    8.8902    0.0000 N   0  0  0  0  0  0  0  0  0  0  0  0
   -2.2501    8.4777    0.0000 C   0  0  0  0  0  0  0  0  0  0  0  0
   -2.9646    8.8902    0.0000 C   0  0  0  0  0  0  0  0  0  0  0  0
   -2.9646    9.7152    0.0000 O   0  0  0  0  0  0  0  0  0  0  0  0
   -2.2501   10.1277    0.0000 C   0  0  0  0  0  0  0  0  0  0  0  0
   -1.5356    9.7152    0.0000 C   0  0  0  0  0  0  0  0  0  0  0  0
    0.6078    6.0027    0.0000 N   0  0  0  0  0  0  0  0  0  0  0  0
    1.3222    5.5902    0.0000 C   0  0  0  0  0  0  0  0  0  0  0  0
    2.0367    6.0027    0.0000 O   0  0  0  0  0  0  0  0  0  0  0  0
    1.3222    4.7652    0.0000 C   0  0  0  0  0  0  0  0  0  0  0  0
    2.0367    4.3527    0.0000 N   0  0  0  0  0  0  0  0  0  0  0  0
    2.7512    4.7652    0.0000 C   0  0  0  0  0  0  0  0  0  0  0  0
    2.7512    5.5902    0.0000 O   0  0  0  0  0  0  0  0  0  0  0  0
    3.4656    4.3527    0.0000 C   0  0  0  0  0  0  0  0  0  0  0  0
    4.1801    4.7652    0.0000 F   0  0  0  0  0  0  0  0  0  0  0  0
    3.4656    3.5277    0.0000 C   0  0  0  0  0  0  0  0  0  0  0  0
    2.7512    3.1152    0.0000 N   0  0  0  0  0  0  0  0  0  0  0  0
    2.0367    3.5277    0.0000 C   0  0  0  0  0  0  0  0  0  0  0  0
    1.3222    3.1152    0.0000 O   0  0  0  0  0  0  0  0  0  0  0  0
    2.7512    2.2902    0.0000 C   0  0  0  0  0  0  0  0  0  0  0  0
    3.4186    1.8053    0.0000 C   0  0  0  0  0  0  0  0  0  0  0  0
    3.1637    1.0206    0.0000 C   0  0  0  0  0  0  0  0  0  0  0  0
    2.3387    1.0206    0.0000 C   0  0  0  0  0  0  0  0  0  0  0  0
    2.0837    1.8053    0.0000 O   0  0  0  0  0  0  0  0  0  0  0  0
  1  2  1  0  0  0  0
  2  3  1  0  0  0  0
  3  4  2  0  0  0  0
  4  5  1  0  0  0  0
  5  6  2  0  0  0  0
  6  7  1  0  0  0  0
  2  7  2  0  0  0  0
  7  8  1  0  0  0  0
  8  9  2  0  0  0  0
  8 10  2  0  0  0  0
  8 11  1  0  0  0  0
 11 12  1  0  0  0  0
 12 13  1  0  0  0  0
 13 14  1  0  0  0  0
 14 15  1  0  0  0  0
 15 16  1  0  0  0  0
 11 16  1  0  0  0  0
  5 17  1  0  0  0  0
 17 18  1  0  0  0  0
 18 19  2  0  0  0  0
 18 20  1  0  0  0  0
 20 21  1  0  0  0  0
 21 22  1  0  0  0  0
 22 23  2  0  0  0  0
 22 24  1  0  0  0  0
 24 25  1  0  0  0  0
 24 26  2  0  0  0  0
 26 27  1  0  0  0  0
 27 28  1  0  0  0  0
 21 28  1  0  0  0  0
 28 29  2  0  0  0  0
 27 30  1  0  0  0  0
 30 31  1  0  0  0  0
 31 32  1  0  0  0  0
 32 33  1  0  0  0  0
 33 34  1  0  0  0  0
 30 34  1  0  0  0  0
M  END
>  <Catalog ID>
Z107295712

>  <Plate_ID>
2026983-X50-04

>  <Well>
D08

>  <V, µL>
50

>  <Conc, mM>
10

>  <Formula>
C21H25FN4O7S

>  <MW>
496.5092

>  <Purity>
100

>  <PO>
5A-64168

>  <MW_salt>
0

>  <Stereochem.data>
Racemic or presumed racemic or meso

>  <Geometric.isomer>
None

>  <Chemical name>
2-[5-fluoro-2,6-dioxo-3-(oxolan-2-yl)-1,2,3,6-tetrahydropyrimidin-1-yl]-N-[4-methyl-3-(morpholine-4-sulfonyl)phenyl]acetamide

>  <ClogP>
2,146

>  <logS>
-2,95

>  <HBD>
1

>  <HBA>
7

>  <TPSA>
125,56

>  <RotBonds>
5

$$$$

  Mrv1925 04172511352D          

 28 30  0  0  0  0            999 V2000
   -0.9355   -2.8875    0.0000 C   0  0  0  0  0  0  0  0  0  0  0  0
   -0.5230   -2.1730    0.0000 C   0  0  0  0  0  0  0  0  0  0  0  0
    0.3020   -2.1730    0.0000 C   0  0  0  0  0  0  0  0  0  0  0  0
    0.7145   -2.8875    0.0000 C   0  0  0  0  0  0  0  0  0  0  0  0
    0.3020   -3.6020    0.0000 C   0  0  0  0  0  0  0  0  0  0  0  0
    0.7145   -1.4586    0.0000 C   0  0  0  0  0  0  0  0  0  0  0  0
    1.5395   -1.4586    0.0000 N   0  0  0  0  0  0  0  0  0  0  0  0
    1.9520   -2.1730    0.0000 C   0  0  0  0  0  0  0  0  0  0  0  0
    2.7770   -2.1730    0.0000 C   0  0  0  0  0  0  0  0  0  0  0  0
    3.1895   -2.8875    0.0000 C   0  0  0  0  0  0  0  0  0  0  0  0
    3.6020   -3.6020    0.0000 N   0  0  0  0  0  0  0  0  0  0  0  0
    1.9520   -0.7441    0.0000 C   0  0  0  0  0  0  0  0  0  0  0  0
    1.5395   -0.0296    0.0000 N   0  0  0  0  0  0  0  0  0  0  0  0
    1.9520    0.6849    0.0000 C   0  0  0  0  0  0  0  0  0  0  0  0
    2.7770    0.6849    0.0000 N   0  0  0  0  0  0  0  0  0  0  0  0
    3.1895   -0.0296    0.0000 C   0  0  0  0  0  0  0  0  0  0  0  0
    2.7770   -0.7441    0.0000 C   0  0  0  0  0  0  0  0  0  0  0  0
    3.3290   -1.3572    0.0000 N   0  0  0  0  0  0  0  0  0  0  0  0
    4.0827   -1.0216    0.0000 C   0  0  0  0  0  0  0  0  0  0  0  0
    3.9964   -0.2011    0.0000 N   0  0  0  0  0  0  0  0  0  0  0  0
    4.6095    0.3509    0.0000 C   0  0  0  0  0  0  0  0  0  0  0  0
    4.6527    1.1748    0.0000 C   0  0  0  0  0  0  0  0  0  0  0  0
    5.4766    1.1316    0.0000 C   0  0  0  0  0  0  0  0  0  0  0  0
    5.5198    1.9555    0.0000 C   0  0  0  0  0  0  0  0  0  0  0  0
    4.8279    2.4048    0.0000 O   0  0  0  0  0  0  0  0  0  0  0  0
    6.3005    1.0884    0.0000 C   0  0  0  0  0  0  0  0  0  0  0  0
    6.6750    0.3533    0.0000 O   0  0  0  0  0  0  0  0  0  0  0  0
    5.4334    0.3077    0.0000 C   0  0  0  0  0  0  0  0  0  0  0  0
  1  2  1  0  0  0  0
  2  3  1  0  0  0  0
  3  4  1  0  0  0  0
  4  5  1  0  0  0  0
  3  6  1  0  0  0  0
  6  7  1  0  0  0  0
  7  8  1  0  0  0  0
  8  9  1  0  0  0  0
  9 10  1  0  0  0  0
 10 11  3  0  0  0  0
  7 12  1  0  0  0  0
 12 13  1  0  0  0  0
 13 14  2  0  0  0  0
 14 15  1  0  0  0  0
 15 16  2  0  0  0  0
 16 17  1  0  0  0  0
 12 17  2  0  0  0  0
 17 18  1  0  0  0  0
 18 19  2  0  0  0  0
 19 20  1  0  0  0  0
 16 20  1  0  0  0  0
 20 21  1  0  0  0  0
 21 22  1  0  0  0  0
 22 23  1  0  0  0  0
 23 24  1  0  0  0  0
 24 25  1  0  0  0  0
 23 26  1  0  0  0  0
 26 27  1  0  0  0  0
 23 28  1  0  0  0  0
 21 28  1  0  0  0  0
M  END
>  <Catalog ID>
Z2760944632

>  <Plate_ID>
2026983-X50-04

>  <Well>
E08

>  <V, µL>
50

>  <Conc, mM>
10

>  <Formula>
C20H30N6O2

>  <MW>
386.4912

>  <Purity>
95.59

>  <PO>
5A-64168

>  <MW_salt>
0

>  <Stereochem.data>
Achiral

>  <Geometric.isomer>
None

>  <Chemical name>
3-({9-[3,3-bis(hydroxymethyl)cyclobutyl]-9H-purin-6-yl}(2-ethylbutyl)amino)propanenitrile

>  <ClogP>
1,164

>  <logS>
-3,471

>  <HBD>
2

>  <HBA>
7

>  <TPSA>
111,09

>  <RotBonds>
10

$$$$

  Mrv1925 04172511352D          

 28 31  0  0  1  0            999 V2000
    1.8269    2.2925    0.0000 C   0  0  0  0  0  0  0  0  0  0  0  0
    2.6115    2.5474    0.0000 C   0  0  2  0  0  0  0  0  0  0  0  0
    2.8664    3.3320    0.0000 C   0  0  1  0  0  0  0  0  0  0  0  0
    3.6914    3.3320    0.0000 C   0  0  0  0  0  0  0  0  0  0  0  0
    3.9464    2.5474    0.0000 C   0  0  0  0  0  0  0  0  0  0  0  0
    3.2789    2.0625    0.0000 N   0  0  0  0  0  0  0  0  0  0  0  0
    3.2789    1.2375    0.0000 C   0  0  0  0  0  0  0  0  0  0  0  0
    3.9934    0.8250    0.0000 N   0  0  0  0  0  0  0  0  0  0  0  0
    3.9934    0.0000    0.0000 C   0  0  0  0  0  0  0  0  0  0  0  0
    3.2789   -0.4125    0.0000 N   0  0  0  0  0  0  0  0  0  0  0  0
    2.5645    0.0000    0.0000 C   0  0  0  0  0  0  0  0  0  0  0  0
    2.5645    0.8250    0.0000 C   0  0  0  0  0  0  0  0  0  0  0  0
    1.7798    1.0799    0.0000 N   0  0  0  0  0  0  0  0  0  0  0  0
    1.2949    0.4125    0.0000 C   0  0  0  0  0  0  0  0  0  0  0  0
    1.7798   -0.2549    0.0000 N   0  0  0  0  0  0  0  0  0  0  0  0
    1.5249   -1.0396    0.0000 C   0  0  0  0  0  0  0  0  0  0  0  0
    1.8994   -1.7746    0.0000 C   0  0  0  0  0  0  0  0  0  0  0  0
    1.1644   -2.1492    0.0000 C   0  0  0  0  0  0  0  0  0  0  0  0
    1.5389   -2.8843    0.0000 C   0  0  0  0  0  0  0  0  0  0  0  0
    2.3628   -2.9274    0.0000 O   0  0  0  0  0  0  0  0  0  0  0  0
    0.4293   -2.5237    0.0000 C   0  0  0  0  0  0  0  0  0  0  0  0
   -0.2626   -2.0744    0.0000 O   0  0  0  0  0  0  0  0  0  0  0  0
    0.7898   -1.4141    0.0000 C   0  0  0  0  0  0  0  0  0  0  0  0
    2.3815    3.9995    0.0000 N   0  0  0  0  0  0  0  0  0  0  0  0
    2.7171    4.7532    0.0000 C   0  0  0  0  0  0  0  0  0  0  0  0
    1.5610    3.9132    0.0000 C   0  0  0  0  0  0  0  0  0  0  0  0
    1.0761    4.5807    0.0000 C   0  0  0  0  0  0  0  0  0  0  0  0
    0.2556    4.4945    0.0000 O   0  0  0  0  0  0  0  0  0  0  0  0
  2  1  1  6  0  0  0
  2  3  1  0  0  0  0
  3  4  1  0  0  0  0
  4  5  1  0  0  0  0
  5  6  1  0  0  0  0
  2  6  1  0  0  0  0
  6  7  1  0  0  0  0
  7  8  2  0  0  0  0
  8  9  1  0  0  0  0
  9 10  2  0  0  0  0
 10 11  1  0  0  0  0
 11 12  2  0  0  0  0
  7 12  1  0  0  0  0
 12 13  1  0  0  0  0
 13 14  2  0  0  0  0
 14 15  1  0  0  0  0
 11 15  1  0  0  0  0
 15 16  1  0  0  0  0
 16 17  1  0  0  0  0
 17 18  1  0  0  0  0
 18 19  1  0  0  0  0
 19 20  1  0  0  0  0
 18 21  1  0  0  0  0
 21 22  1  0  0  0  0
 18 23  1  0  0  0  0
 16 23  1  0  0  0  0
  3 24  1  6  0  0  0
 24 25  1  0  0  0  0
 24 26  1  0  0  0  0
 26 27  1  0  0  0  0
 27 28  1  0  0  0  0
M  END
>  <Catalog ID>
Z2760971959

>  <Plate_ID>
2026983-X50-04

>  <Well>
F08

>  <V, µL>
50

>  <Conc, mM>
10

>  <Formula>
C19H30N6O3

>  <MW>
390.4799

>  <Purity>
98.66

>  <PO>
5A-64168

>  <MW_salt>
0

>  <Stereochem.data>
Single known enantiomer

>  <Geometric.isomer>
None

>  <Chemical name>
2-{[(2R,3R)-1-{9-[3,3-bis(hydroxymethyl)cyclobutyl]-9H-purin-6-yl}-2-methylpyrrolidin-3-yl](methyl)amino}ethan-1-ol

>  <ClogP>
-1,049

>  <logS>
-1,498

>  <HBD>
3

>  <HBA>
8

>  <TPSA>
110,77

>  <RotBonds>
7

$$$$

  Mrv1925 04172511352D          

 27 31  0  0  0  0            999 V2000
    3.8623    3.8126    0.0000 C   0  0  0  0  0  0  0  0  0  0  0  0
    3.2789    3.2292    0.0000 C   0  0  0  0  0  0  0  0  0  0  0  0
    2.6956    3.8126    0.0000 C   0  0  0  0  0  0  0  0  0  0  0  0
    3.8623    2.6459    0.0000 C   0  0  0  0  0  0  0  0  0  0  0  0
    3.2789    2.0625    0.0000 N   0  0  0  0  0  0  0  0  0  0  0  0
    3.2789    1.2375    0.0000 C   0  0  0  0  0  0  0  0  0  0  0  0
    3.9934    0.8250    0.0000 N   0  0  0  0  0  0  0  0  0  0  0  0
    3.9934    0.0000    0.0000 C   0  0  0  0  0  0  0  0  0  0  0  0
    3.2789   -0.4125    0.0000 N   0  0  0  0  0  0  0  0  0  0  0  0
    2.5645    0.0000    0.0000 C   0  0  0  0  0  0  0  0  0  0  0  0
    2.5645    0.8250    0.0000 C   0  0  0  0  0  0  0  0  0  0  0  0
    1.7798    1.0799    0.0000 N   0  0  0  0  0  0  0  0  0  0  0  0
    1.2949    0.4125    0.0000 C   0  0  0  0  0  0  0  0  0  0  0  0
    1.7798   -0.2549    0.0000 N   0  0  0  0  0  0  0  0  0  0  0  0
    1.5249   -1.0396    0.0000 C   0  0  0  0  0  0  0  0  0  0  0  0
    0.7179   -1.2111    0.0000 C   0  0  0  0  0  0  0  0  0  0  0  0
    0.6317   -0.3906    0.0000 O   0  0  0  0  0  0  0  0  0  0  0  0
    0.9729   -1.9957    0.0000 C   0  0  0  0  0  0  0  0  0  0  0  0
    0.3054   -2.4806    0.0000 C   0  0  0  0  0  0  0  0  0  0  0  0
   -0.3620   -1.9957    0.0000 O   0  0  0  0  0  0  0  0  0  0  0  0
   -0.1071   -1.2111    0.0000 C   0  0  0  0  0  0  0  0  0  0  0  0
    2.6956    2.6459    0.0000 C   0  0  0  0  0  0  0  0  0  0  0  0
    1.8706    2.6459    0.0000 C   0  0  0  0  0  0  0  0  0  0  0  0
    1.3856    1.9784    0.0000 C   0  0  0  0  0  0  0  0  0  0  0  0
    0.6010    2.2334    0.0000 C   0  0  0  0  0  0  0  0  0  0  0  0
    0.6010    3.0584    0.0000 C   0  0  0  0  0  0  0  0  0  0  0  0
    1.3856    3.3133    0.0000 O   0  0  0  0  0  0  0  0  0  0  0  0
  1  2  1  0  0  0  0
  2  3  1  0  0  0  0
  2  4  1  0  0  0  0
  4  5  1  0  0  0  0
  5  6  1  0  0  0  0
  6  7  1  0  0  0  0
  7  8  2  0  0  0  0
  8  9  1  0  0  0  0
  9 10  2  0  0  0  0
 10 11  1  0  0  0  0
  6 11  2  0  0  0  0
 11 12  1  0  0  0  0
 12 13  2  0  0  0  0
 13 14  1  0  0  0  0
 10 14  1  0  0  0  0
 14 15  1  0  0  0  0
 15 16  1  0  0  0  0
 16 17  1  0  0  0  0
 16 18  1  0  0  0  0
 18 19  1  0  0  0  0
 19 20  1  0  0  0  0
 20 21  1  0  0  0  0
 16 21  1  0  0  0  0
  5 22  1  0  0  0  0
  2 22  1  0  0  0  0
 22 23  1  0  0  0  0
 23 24  1  0  0  0  0
 24 25  1  0  0  0  0
 25 26  1  0  0  0  0
 26 27  1  0  0  0  0
 23 27  1  0  0  0  0
M  END
>  <Catalog ID>
Z2760973854

>  <Plate_ID>
2026983-X50-04

>  <Well>
G08

>  <V, µL>
50

>  <Conc, mM>
10

>  <Formula>
C19H27N5O3

>  <MW>
373.4494

>  <Purity>
90.41

>  <PO>
5A-64168

>  <MW_salt>
0

>  <Stereochem.data>
Diastereomeric mixture

>  <Geometric.isomer>
None

>  <Chemical name>
3-({6-[3,3-dimethyl-2-(oxolan-2-yl)azetidin-1-yl]-9H-purin-9-yl}methyl)oxolan-3-ol

>  <ClogP>
0,449

>  <logS>
-3,514

>  <HBD>
1

>  <HBA>
7

>  <TPSA>
85,53

>  <RotBonds>
4

$$$$

  Mrv1925 04172511352D          

 30 34  0  0  0  0            999 V2000
    5.0998    3.3603    0.0000 C   0  0  0  0  0  0  0  0  0  0  0  0
    4.6873    2.6459    0.0000 C   0  0  0  0  0  0  0  0  0  0  0  0
    5.0998    1.9314    0.0000 C   0  0  0  0  0  0  0  0  0  0  0  0
    3.8623    2.6459    0.0000 C   0  0  0  0  0  0  0  0  0  0  0  0
    3.2789    2.0625    0.0000 N   0  0  0  0  0  0  0  0  0  0  0  0
    2.6956    2.6459    0.0000 C   0  0  0  0  0  0  0  0  0  0  0  0
    3.2789    3.2292    0.0000 C   0  0  0  0  0  0  0  0  0  0  0  0
    2.5645    3.6417    0.0000 C   0  0  0  0  0  0  0  0  0  0  0  0
    2.5645    4.4667    0.0000 C   0  0  0  0  0  0  0  0  0  0  0  0
    3.2789    4.8792    0.0000 C   0  0  0  0  0  0  0  0  0  0  0  0
    3.9934    4.4667    0.0000 C   0  0  0  0  0  0  0  0  0  0  0  0
    3.9934    3.6417    0.0000 C   0  0  0  0  0  0  0  0  0  0  0  0
    3.2789    1.2375    0.0000 C   0  0  0  0  0  0  0  0  0  0  0  0
    3.9934    0.8250    0.0000 N   0  0  0  0  0  0  0  0  0  0  0  0
    3.9934    0.0000    0.0000 C   0  0  0  0  0  0  0  0  0  0  0  0
    3.2789   -0.4125    0.0000 N   0  0  0  0  0  0  0  0  0  0  0  0
    2.5645    0.0000    0.0000 C   0  0  0  0  0  0  0  0  0  0  0  0
    2.5645    0.8250    0.0000 C   0  0  0  0  0  0  0  0  0  0  0  0
    1.7798    1.0799    0.0000 N   0  0  0  0  0  0  0  0  0  0  0  0
    1.2949    0.4125    0.0000 C   0  0  0  0  0  0  0  0  0  0  0  0
    1.7798   -0.2549    0.0000 N   0  0  0  0  0  0  0  0  0  0  0  0
    1.5249   -1.0396    0.0000 C   0  0  0  0  0  0  0  0  0  0  0  0
    2.0769   -1.6527    0.0000 C   0  0  0  0  0  0  0  0  0  0  0  0
    2.8839   -1.4811    0.0000 C   0  0  0  0  0  0  0  0  0  0  0  0
    3.4359   -2.0942    0.0000 O   0  0  0  0  0  0  0  0  0  0  0  0
    1.8220   -2.4373    0.0000 C   0  0  0  0  0  0  0  0  0  0  0  0
    2.3069   -3.1047    0.0000 C   0  0  0  0  0  0  0  0  0  0  0  0
    1.8220   -3.7722    0.0000 C   0  0  0  0  0  0  0  0  0  0  0  0
    1.0374   -3.5172    0.0000 O   0  0  0  0  0  0  0  0  0  0  0  0
    1.0374   -2.6922    0.0000 C   0  0  0  0  0  0  0  0  0  0  0  0
  1  2  1  0  0  0  0
  2  3  1  0  0  0  0
  2  4  1  0  0  0  0
  4  5  1  0  0  0  0
  5  6  1  0  0  0  0
  6  7  1  0  0  0  0
  4  7  1  0  0  0  0
  7  8  1  0  0  0  0
  8  9  1  0  0  0  0
  9 10  1  0  0  0  0
 10 11  1  0  0  0  0
 11 12  1  0  0  0  0
  7 12  1  0  0  0  0
  5 13  1  0  0  0  0
 13 14  1  0  0  0  0
 14 15  2  0  0  0  0
 15 16  1  0  0  0  0
 16 17  2  0  0  0  0
 17 18  1  0  0  0  0
 13 18  2  0  0  0  0
 18 19  1  0  0  0  0
 19 20  2  0  0  0  0
 20 21  1  0  0  0  0
 17 21  1  0  0  0  0
 21 22  1  0  0  0  0
 22 23  1  0  0  0  0
 23 24  1  0  0  0  0
 24 25  1  0  0  0  0
 23 26  1  0  0  0  0
 26 27  1  0  0  0  0
 27 28  1  0  0  0  0
 28 29  1  0  0  0  0
 29 30  1  0  0  0  0
 26 30  1  0  0  0  0
M  END
>  <Catalog ID>
Z2760974676

>  <Plate_ID>
2026983-X50-04

>  <Well>
H08

>  <V, µL>
50

>  <Conc, mM>
10

>  <Formula>
C23H35N5O2

>  <MW>
413.5563

>  <Purity>
98.64

>  <PO>
5A-64168

>  <MW_salt>
0

>  <Stereochem.data>
Diastereomeric mixture

>  <Geometric.isomer>
None

>  <Chemical name>
2-(oxolan-3-yl)-3-{6-[1-(propan-2-yl)-2-azaspiro[3.5]nonan-2-yl]-9H-purin-9-yl}propan-1-ol

>  <ClogP>
2,648

>  <logS>
-5,228

>  <HBD>
1

>  <HBA>
6

>  <TPSA>
76,3

>  <RotBonds>
6

$$$$

  Mrv1925 04172511352D          

 20 21  0  0  0  0            999 V2000
    2.1434   -1.2375    0.0000 C   0  0  0  0  0  0  0  0  0  0  0  0
    1.4289   -1.6500    0.0000 C   0  0  0  0  0  0  0  0  0  0  0  0
    0.7145   -1.2375    0.0000 C   0  0  0  0  0  0  0  0  0  0  0  0
    1.4289   -2.4750    0.0000 C   0  0  0  0  0  0  0  0  0  0  0  0
    2.1434   -2.8875    0.0000 N   0  0  0  0  0  0  0  0  0  0  0  0
    2.1434   -3.7125    0.0000 C   0  0  0  0  0  0  0  0  0  0  0  0
    1.4289   -4.1250    0.0000 C   0  0  0  0  0  0  0  0  0  0  0  0
    0.7145   -3.7125    0.0000 C   0  0  0  0  0  0  0  0  0  0  0  0
    0.7145   -2.8875    0.0000 N   0  0  0  0  0  0  0  0  0  0  0  0
    0.0000   -4.1250    0.0000 N   0  0  0  0  0  0  0  0  0  0  0  0
    0.0000   -4.9500    0.0000 C   0  0  0  0  0  0  0  0  0  0  0  0
   -0.7145   -5.3625    0.0000 C   0  0  0  0  0  0  0  0  0  0  0  0
   -0.7145   -6.1875    0.0000 C   0  0  0  0  0  0  0  0  0  0  0  0
   -1.4289   -6.6000    0.0000 N   0  0  0  0  0  0  0  0  0  0  0  0
   -1.4289   -7.4250    0.0000 C   0  0  0  0  0  0  0  0  0  0  0  0
   -2.1434   -6.1875    0.0000 C   0  0  0  0  0  0  0  0  0  0  0  0
   -2.8579   -6.6000    0.0000 O   0  0  0  0  0  0  0  0  0  0  0  0
   -2.1434   -5.3625    0.0000 N   0  0  0  0  0  0  0  0  0  0  0  0
   -1.4289   -4.9500    0.0000 C   0  0  0  0  0  0  0  0  0  0  0  0
   -1.4289   -4.1250    0.0000 O   0  0  0  0  0  0  0  0  0  0  0  0
  1  2  1  0  0  0  0
  2  3  1  0  0  0  0
  2  4  1  0  0  0  0
  4  5  1  0  0  0  0
  5  6  2  0  0  0  0
  6  7  1  0  0  0  0
  7  8  2  0  0  0  0
  8  9  1  0  0  0  0
  4  9  2  0  0  0  0
  8 10  1  0  0  0  0
 10 11  1  0  0  0  0
 11 12  1  0  0  0  0
 12 13  2  0  0  0  0
 13 14  1  0  0  0  0
 14 15  1  0  0  0  0
 14 16  1  0  0  0  0
 16 17  2  0  0  0  0
 16 18  1  0  0  0  0
 18 19  1  0  0  0  0
 12 19  1  0  0  0  0
 19 20  2  0  0  0  0
M  END
>  <Catalog ID>
Z3077736549

>  <Plate_ID>
2026983-X50-04

>  <Well>
A09

>  <V, µL>
50

>  <Conc, mM>
10

>  <Formula>
C13H17N5O2

>  <MW>
275.3064

>  <Purity>
96.44

>  <PO>
5A-64168

>  <MW_salt>
0

>  <Stereochem.data>
Achiral

>  <Geometric.isomer>
None

>  <Chemical name>
1-methyl-5-({[2-(propan-2-yl)pyrimidin-4-yl]amino}methyl)-1,2,3,4-tetrahydropyrimidine-2,4-dione

>  <ClogP>
0,032

>  <logS>
-2,05

>  <HBD>
2

>  <HBA>
5

>  <TPSA>
87,22

>  <RotBonds>
4

$$$$

  Mrv1925 04172511352D          

 26 29  0  0  0  0            999 V2000
    4.7079    2.0625    0.0000 C   0  0  0  0  0  0  0  0  0  0  0  0
    3.9934    2.4750    0.0000 C   0  0  0  0  0  0  0  0  0  0  0  0
    3.2789    2.0625    0.0000 N   0  0  0  0  0  0  0  0  0  0  0  0
    2.5645    2.4750    0.0000 C   0  0  0  0  0  0  0  0  0  0  0  0
    2.5645    3.3000    0.0000 C   0  0  0  0  0  0  0  0  0  0  0  0
    3.2319    3.7849    0.0000 C   0  0  0  0  0  0  0  0  0  0  0  0
    2.9770    4.5695    0.0000 C   0  0  0  0  0  0  0  0  0  0  0  0
    2.1520    4.5695    0.0000 C   0  0  0  0  0  0  0  0  0  0  0  0
    1.8970    3.7849    0.0000 O   0  0  0  0  0  0  0  0  0  0  0  0
    3.2789    1.2375    0.0000 C   0  0  0  0  0  0  0  0  0  0  0  0
    3.9934    0.8250    0.0000 N   0  0  0  0  0  0  0  0  0  0  0  0
    3.9934    0.0000    0.0000 C   0  0  0  0  0  0  0  0  0  0  0  0
    3.2789   -0.4125    0.0000 N   0  0  0  0  0  0  0  0  0  0  0  0
    2.5645    0.0000    0.0000 C   0  0  0  0  0  0  0  0  0  0  0  0
    2.5645    0.8250    0.0000 C   0  0  0  0  0  0  0  0  0  0  0  0
    1.7798    1.0799    0.0000 N   0  0  0  0  0  0  0  0  0  0  0  0
    1.2949    0.4125    0.0000 C   0  0  0  0  0  0  0  0  0  0  0  0
    1.7798   -0.2549    0.0000 N   0  0  0  0  0  0  0  0  0  0  0  0
    1.5249   -1.0396    0.0000 C   0  0  0  0  0  0  0  0  0  0  0  0
    2.0769   -1.6527    0.0000 C   0  0  0  0  0  0  0  0  0  0  0  0
    1.4095   -2.1376    0.0000 O   0  0  0  0  0  0  0  0  0  0  0  0
    2.6290   -1.0396    0.0000 C   0  0  0  0  0  0  0  0  0  0  0  0
    3.3826   -1.3751    0.0000 C   0  0  0  0  0  0  0  0  0  0  0  0
    3.2964   -2.1956    0.0000 O   0  0  0  0  0  0  0  0  0  0  0  0
    2.4894   -2.3671    0.0000 C   0  0  0  0  0  0  0  0  0  0  0  0
    2.1539   -3.1208    0.0000 C   0  0  0  0  0  0  0  0  0  0  0  0
  1  2  1  0  0  0  0
  2  3  1  0  0  0  0
  3  4  1  0  0  0  0
  4  5  1  0  0  0  0
  5  6  1  0  0  0  0
  6  7  1  0  0  0  0
  7  8  1  0  0  0  0
  8  9  1  0  0  0  0
  5  9  1  0  0  0  0
  3 10  1  0  0  0  0
 10 11  1  0  0  0  0
 11 12  2  0  0  0  0
 12 13  1  0  0  0  0
 13 14  2  0  0  0  0
 14 15  1  0  0  0  0
 10 15  2  0  0  0  0
 15 16  1  0  0  0  0
 16 17  2  0  0  0  0
 17 18  1  0  0  0  0
 14 18  1  0  0  0  0
 18 19  1  0  0  0  0
 19 20  1  0  0  0  0
 20 21  1  0  0  0  0
 20 22  1  0  0  0  0
 22 23  1  0  0  0  0
 23 24  1  0  0  0  0
 24 25  1  0  0  0  0
 20 25  1  0  0  0  0
 25 26  1  0  0  0  0
M  END
>  <Catalog ID>
Z2760941794

>  <Plate_ID>
2026983-X50-04

>  <Well>
B09

>  <V, µL>
50

>  <Conc, mM>
10

>  <Formula>
C18H27N5O3

>  <MW>
361.4387

>  <Purity>
95.71

>  <PO>
5A-64168

>  <MW_salt>
0

>  <Stereochem.data>
Diastereomeric mixture

>  <Geometric.isomer>
None

>  <Chemical name>
3-[(6-{ethyl[(oxolan-2-yl)methyl]amino}-9H-purin-9-yl)methyl]-2-methyloxolan-3-ol

>  <ClogP>
1,155

>  <logS>
-3,105

>  <HBD>
1

>  <HBA>
7

>  <TPSA>
85,53

>  <RotBonds>
6

$$$$

  Mrv1925 04172511352D          

 28 31  0  0  0  0            999 V2000
    4.7079    2.0625    0.0000 C   0  0  0  0  0  0  0  0  0  0  0  0
    3.9934    2.4750    0.0000 C   0  0  0  0  0  0  0  0  0  0  0  0
    3.9934    3.3000    0.0000 C   0  0  0  0  0  0  0  0  0  0  0  0
    4.7079    3.7125    0.0000 N   0  0  0  0  0  0  0  0  0  0  0  0
    4.7079    4.5375    0.0000 C   0  0  0  0  0  0  0  0  0  0  0  0
    5.4223    4.9500    0.0000 C   0  0  0  0  0  0  0  0  0  0  0  0
    6.1368    4.5375    0.0000 O   0  0  0  0  0  0  0  0  0  0  0  0
    6.1368    3.7125    0.0000 C   0  0  0  0  0  0  0  0  0  0  0  0
    5.4223    3.3000    0.0000 C   0  0  0  0  0  0  0  0  0  0  0  0
    3.2789    2.0625    0.0000 N   0  0  0  0  0  0  0  0  0  0  0  0
    2.5645    2.4750    0.0000 C   0  0  0  0  0  0  0  0  0  0  0  0
    3.2789    1.2375    0.0000 C   0  0  0  0  0  0  0  0  0  0  0  0
    3.9934    0.8250    0.0000 N   0  0  0  0  0  0  0  0  0  0  0  0
    3.9934    0.0000    0.0000 C   0  0  0  0  0  0  0  0  0  0  0  0
    3.2789   -0.4125    0.0000 N   0  0  0  0  0  0  0  0  0  0  0  0
    2.5645    0.0000    0.0000 C   0  0  0  0  0  0  0  0  0  0  0  0
    2.5645    0.8250    0.0000 C   0  0  0  0  0  0  0  0  0  0  0  0
    1.7798    1.0799    0.0000 N   0  0  0  0  0  0  0  0  0  0  0  0
    1.2949    0.4125    0.0000 C   0  0  0  0  0  0  0  0  0  0  0  0
    1.7798   -0.2549    0.0000 N   0  0  0  0  0  0  0  0  0  0  0  0
    1.5249   -1.0396    0.0000 C   0  0  0  0  0  0  0  0  0  0  0  0
    2.0769   -1.6527    0.0000 C   0  0  0  0  0  0  0  0  0  0  0  0
    2.8839   -1.4811    0.0000 O   0  0  0  0  0  0  0  0  0  0  0  0
    1.8220   -2.4373    0.0000 C   0  0  0  0  0  0  0  0  0  0  0  0
    2.3069   -3.1047    0.0000 C   0  0  0  0  0  0  0  0  0  0  0  0
    1.8220   -3.7722    0.0000 C   0  0  0  0  0  0  0  0  0  0  0  0
    1.0374   -3.5172    0.0000 C   0  0  0  0  0  0  0  0  0  0  0  0
    1.0374   -2.6922    0.0000 O   0  0  0  0  0  0  0  0  0  0  0  0
  1  2  1  0  0  0  0
  2  3  1  0  0  0  0
  3  4  1  0  0  0  0
  4  5  1  0  0  0  0
  5  6  1  0  0  0  0
  6  7  1  0  0  0  0
  7  8  1  0  0  0  0
  8  9  1  0  0  0  0
  4  9  1  0  0  0  0
  2 10  1  0  0  0  0
 10 11  1  0  0  0  0
 10 12  1  0  0  0  0
 12 13  1  0  0  0  0
 13 14  2  0  0  0  0
 14 15  1  0  0  0  0
 15 16  2  0  0  0  0
 16 17  1  0  0  0  0
 12 17  2  0  0  0  0
 17 18  1  0  0  0  0
 18 19  2  0  0  0  0
 19 20  1  0  0  0  0
 16 20  1  0  0  0  0
 20 21  1  0  0  0  0
 21 22  1  0  0  0  0
 22 23  1  0  0  0  0
 22 24  1  0  0  0  0
 24 25  1  0  0  0  0
 25 26  1  0  0  0  0
 26 27  1  0  0  0  0
 27 28  1  0  0  0  0
 24 28  1  0  0  0  0
M  END
>  <Catalog ID>
Z2760967450

>  <Plate_ID>
2026983-X50-04

>  <Well>
C09

>  <V, µL>
50

>  <Conc, mM>
10

>  <Formula>
C19H30N6O3

>  <MW>
390.4799

>  <Purity>
92.45

>  <PO>
5A-64168

>  <MW_salt>
0

>  <Stereochem.data>
Diastereomeric mixture

>  <Geometric.isomer>
None

>  <Chemical name>
2-(6-{methyl[1-(morpholin-4-yl)propan-2-yl]amino}-9H-purin-9-yl)-1-(oxolan-2-yl)ethan-1-ol

>  <ClogP>
0,58

>  <logS>
-2,119

>  <HBD>
1

>  <HBA>
8

>  <TPSA>
88,77

>  <RotBonds>
7

$$$$

  Mrv1925 04172511352D          

 28 31  0  0  1  0            999 V2000
    0.8646   -3.5628    0.0000 C   0  0  0  0  0  0  0  0  0  0  0  0
    0.1544   -3.1429    0.0000 C   0  0  0  0  0  0  0  0  0  0  0  0
   -0.6027   -3.4705    0.0000 O   0  0  0  0  0  0  0  0  0  0  0  0
   -1.1483   -2.8517    0.0000 C   0  0  0  0  0  0  0  0  0  0  0  0
   -0.7283   -2.1416    0.0000 C   0  0  0  0  0  0  0  0  0  0  0  0
    0.0768   -2.3215    0.0000 C   0  0  0  0  0  0  0  0  0  0  0  0
    0.3481   -1.5424    0.0000 O   0  0  0  0  0  0  0  0  0  0  0  0
    0.8838   -2.1500    0.0000 C   0  0  0  0  0  0  0  0  0  0  0  0
    1.1387   -1.3654    0.0000 N   0  0  0  0  0  0  0  0  0  0  0  0
    0.6538   -0.6979    0.0000 C   0  0  0  0  0  0  0  0  0  0  0  0
    1.1387   -0.0305    0.0000 N   0  0  0  0  0  0  0  0  0  0  0  0
    1.9233   -0.2854    0.0000 C   0  0  0  0  0  0  0  0  0  0  0  0
    2.6378    0.1271    0.0000 C   0  0  0  0  0  0  0  0  0  0  0  0
    3.3523   -0.2854    0.0000 N   0  0  0  0  0  0  0  0  0  0  0  0
    3.3523   -1.1104    0.0000 C   0  0  0  0  0  0  0  0  0  0  0  0
    2.6378   -1.5229    0.0000 N   0  0  0  0  0  0  0  0  0  0  0  0
    1.9233   -1.1104    0.0000 C   0  0  0  0  0  0  0  0  0  0  0  0
    2.6378    0.9521    0.0000 N   0  0  0  0  0  0  0  0  0  0  0  0
    1.9704    1.4370    0.0000 C   0  0  0  0  0  0  0  0  0  0  0  0
    2.2253    2.2216    0.0000 C   0  0  0  0  0  0  0  0  0  0  0  0
    3.0503    2.2216    0.0000 C   0  0  2  0  0  0  0  0  0  0  0  0
    3.3053    1.4370    0.0000 C   0  0  1  0  0  0  0  0  0  0  0  0
    4.0899    1.1820    0.0000 C   0  0  0  0  0  0  0  0  0  0  0  0
    3.5352    2.8890    0.0000 N   0  0  0  0  0  0  0  0  0  0  0  0
    4.3557    2.8028    0.0000 C   0  0  0  0  0  0  0  0  0  0  0  0
    3.1997    3.6427    0.0000 C   0  0  0  0  0  0  0  0  0  0  0  0
    3.6846    4.3102    0.0000 C   0  0  0  0  0  0  0  0  0  0  0  0
    3.3490    5.0638    0.0000 O   0  0  0  0  0  0  0  0  0  0  0  0
  1  2  1  0  0  0  0
  2  3  1  0  0  0  0
  3  4  1  0  0  0  0
  4  5  1  0  0  0  0
  5  6  1  0  0  0  0
  2  6  1  0  0  0  0
  6  7  1  0  0  0  0
  6  8  1  0  0  0  0
  8  9  1  0  0  0  0
  9 10  1  0  0  0  0
 10 11  2  0  0  0  0
 11 12  1  0  0  0  0
 12 13  1  0  0  0  0
 13 14  2  0  0  0  0
 14 15  1  0  0  0  0
 15 16  2  0  0  0  0
 16 17  1  0  0  0  0
 12 17  2  0  0  0  0
  9 17  1  0  0  0  0
 13 18  1  0  0  0  0
 18 19  1  0  0  0  0
 19 20  1  0  0  0  0
 21 20  1  0  0  0  0
 21 22  1  0  0  0  0
 22 18  1  0  0  0  0
 22 23  1  1  0  0  0
 21 24  1  1  0  0  0
 24 25  1  0  0  0  0
 24 26  1  0  0  0  0
 26 27  1  0  0  0  0
 27 28  1  0  0  0  0
M  END
>  <Catalog ID>
Z2760971956

>  <Plate_ID>
2026983-X50-04

>  <Well>
D09

>  <V, µL>
50

>  <Conc, mM>
10

>  <Formula>
C19H30N6O3

>  <MW>
390.4799

>  <Purity>
91.05

>  <PO>
5A-64168

>  <MW_salt>
0

>  <Stereochem.data>
Diastereomeric mixture

>  <Geometric.isomer>
None

>  <Chemical name>
3-({6-[(2R,3R)-3-[(2-hydroxyethyl)(methyl)amino]-2-methylpyrrolidin-1-yl]-9H-purin-9-yl}methyl)-2-methyloxolan-3-ol

>  <ClogP>
-0,021

>  <logS>
-2,57

>  <HBD>
2

>  <HBA>
8

>  <TPSA>
99,77

>  <RotBonds>
6

$$$$

  Mrv1925 04172511352D          

 26 29  0  0  0  0            999 V2000
    1.8500    6.5292    0.0000 C   0  0  0  0  0  0  0  0  0  0  0  0
    1.8500    5.7042    0.0000 O   0  0  0  0  0  0  0  0  0  0  0  0
    2.5645    5.2917    0.0000 C   0  0  0  0  0  0  0  0  0  0  0  0
    2.5645    4.4667    0.0000 C   0  0  0  0  0  0  0  0  0  0  0  0
    1.8500    4.0542    0.0000 O   0  0  0  0  0  0  0  0  0  0  0  0
    3.2789    4.0542    0.0000 N   0  0  0  0  0  0  0  0  0  0  0  0
    3.2789    3.2292    0.0000 C   0  0  0  0  0  0  0  0  0  0  0  0
    3.8623    2.6459    0.0000 C   0  0  0  0  0  0  0  0  0  0  0  0
    3.2789    2.0625    0.0000 N   0  0  0  0  0  0  0  0  0  0  0  0
    2.6956    2.6459    0.0000 C   0  0  0  0  0  0  0  0  0  0  0  0
    3.2789    1.2375    0.0000 C   0  0  0  0  0  0  0  0  0  0  0  0
    3.9934    0.8250    0.0000 N   0  0  0  0  0  0  0  0  0  0  0  0
    3.9934    0.0000    0.0000 C   0  0  0  0  0  0  0  0  0  0  0  0
    3.2789   -0.4125    0.0000 N   0  0  0  0  0  0  0  0  0  0  0  0
    2.5645    0.0000    0.0000 C   0  0  0  0  0  0  0  0  0  0  0  0
    2.5645    0.8250    0.0000 C   0  0  0  0  0  0  0  0  0  0  0  0
    1.7798    1.0799    0.0000 N   0  0  0  0  0  0  0  0  0  0  0  0
    1.2949    0.4125    0.0000 C   0  0  0  0  0  0  0  0  0  0  0  0
    1.7798   -0.2549    0.0000 N   0  0  0  0  0  0  0  0  0  0  0  0
    1.5249   -1.0396    0.0000 C   0  0  0  0  0  0  0  0  0  0  0  0
    0.7179   -1.2111    0.0000 C   0  0  0  0  0  0  0  0  0  0  0  0
    0.6317   -0.3906    0.0000 O   0  0  0  0  0  0  0  0  0  0  0  0
    0.9729   -1.9957    0.0000 C   0  0  0  0  0  0  0  0  0  0  0  0
    0.3054   -2.4806    0.0000 C   0  0  0  0  0  0  0  0  0  0  0  0
   -0.3620   -1.9957    0.0000 O   0  0  0  0  0  0  0  0  0  0  0  0
   -0.1071   -1.2111    0.0000 C   0  0  0  0  0  0  0  0  0  0  0  0
  1  2  1  0  0  0  0
  2  3  1  0  0  0  0
  3  4  1  0  0  0  0
  4  5  2  0  0  0  0
  4  6  1  0  0  0  0
  6  7  1  0  0  0  0
  7  8  1  0  0  0  0
  8  9  1  0  0  0  0
  9 10  1  0  0  0  0
  7 10  1  0  0  0  0
  9 11  1  0  0  0  0
 11 12  1  0  0  0  0
 12 13  2  0  0  0  0
 13 14  1  0  0  0  0
 14 15  2  0  0  0  0
 15 16  1  0  0  0  0
 11 16  2  0  0  0  0
 16 17  1  0  0  0  0
 17 18  2  0  0  0  0
 18 19  1  0  0  0  0
 15 19  1  0  0  0  0
 19 20  1  0  0  0  0
 20 21  1  0  0  0  0
 21 22  1  0  0  0  0
 21 23  1  0  0  0  0
 23 24  1  0  0  0  0
 24 25  1  0  0  0  0
 25 26  1  0  0  0  0
 21 26  1  0  0  0  0
M  END
>  <Catalog ID>
Z2760964791

>  <Plate_ID>
2026983-X50-04

>  <Well>
E09

>  <V, µL>
50

>  <Conc, mM>
10

>  <Formula>
C16H22N6O4

>  <MW>
362.3837

>  <Purity>
93.53

>  <PO>
5A-64168

>  <MW_salt>
0

>  <Stereochem.data>
Racemic or presumed racemic or meso

>  <Geometric.isomer>
None

>  <Chemical name>
N-(1-{9-[(3-hydroxyoxolan-3-yl)methyl]-9H-purin-6-yl}azetidin-3-yl)-2-methoxyacetamide

>  <ClogP>
-1,041

>  <logS>
-2,613

>  <HBD>
2

>  <HBA>
8

>  <TPSA>
114,63

>  <RotBonds>
6

$$$$

  Mrv1925 04172511352D          

 26 29  0  0  0  0            999 V2000
    0.4292    2.5896    0.0000 C   0  0  0  0  0  0  0  0  0  0  0  0
    1.2138    2.8445    0.0000 N   0  0  0  0  0  0  0  0  0  0  0  0
    1.8269    2.2925    0.0000 C   0  0  0  0  0  0  0  0  0  0  0  0
    1.6553    1.4855    0.0000 O   0  0  0  0  0  0  0  0  0  0  0  0
    2.6115    2.5474    0.0000 C   0  0  0  0  0  0  0  0  0  0  0  0
    2.8664    3.3320    0.0000 C   0  0  0  0  0  0  0  0  0  0  0  0
    3.6914    3.3320    0.0000 C   0  0  0  0  0  0  0  0  0  0  0  0
    3.9464    2.5474    0.0000 C   0  0  0  0  0  0  0  0  0  0  0  0
    3.2789    2.0625    0.0000 N   0  0  0  0  0  0  0  0  0  0  0  0
    3.2789    1.2375    0.0000 C   0  0  0  0  0  0  0  0  0  0  0  0
    3.9934    0.8250    0.0000 N   0  0  0  0  0  0  0  0  0  0  0  0
    3.9934    0.0000    0.0000 C   0  0  0  0  0  0  0  0  0  0  0  0
    3.2789   -0.4125    0.0000 N   0  0  0  0  0  0  0  0  0  0  0  0
    2.5645    0.0000    0.0000 C   0  0  0  0  0  0  0  0  0  0  0  0
    2.5645    0.8250    0.0000 C   0  0  0  0  0  0  0  0  0  0  0  0
    1.7798    1.0799    0.0000 N   0  0  0  0  0  0  0  0  0  0  0  0
    1.2949    0.4125    0.0000 C   0  0  0  0  0  0  0  0  0  0  0  0
    1.7798   -0.2549    0.0000 N   0  0  0  0  0  0  0  0  0  0  0  0
    1.5249   -1.0396    0.0000 C   0  0  0  0  0  0  0  0  0  0  0  0
    2.0769   -1.6527    0.0000 C   0  0  0  0  0  0  0  0  0  0  0  0
    1.3773   -2.0898    0.0000 O   0  0  0  0  0  0  0  0  0  0  0  0
    2.5848   -1.0025    0.0000 C   0  0  0  0  0  0  0  0  0  0  0  0
    3.4018   -1.1174    0.0000 C   0  0  0  0  0  0  0  0  0  0  0  0
    3.7109   -1.8823    0.0000 O   0  0  0  0  0  0  0  0  0  0  0  0
    3.2030   -2.5324    0.0000 C   0  0  0  0  0  0  0  0  0  0  0  0
    2.3860   -2.4176    0.0000 C   0  0  0  0  0  0  0  0  0  0  0  0
  1  2  1  0  0  0  0
  2  3  1  0  0  0  0
  3  4  2  0  0  0  0
  3  5  1  0  0  0  0
  5  6  1  0  0  0  0
  6  7  1  0  0  0  0
  7  8  1  0  0  0  0
  8  9  1  0  0  0  0
  5  9  1  0  0  0  0
  9 10  1  0  0  0  0
 10 11  1  0  0  0  0
 11 12  2  0  0  0  0
 12 13  1  0  0  0  0
 13 14  2  0  0  0  0
 14 15  1  0  0  0  0
 10 15  2  0  0  0  0
 15 16  1  0  0  0  0
 16 17  2  0  0  0  0
 17 18  1  0  0  0  0
 14 18  1  0  0  0  0
 18 19  1  0  0  0  0
 19 20  1  0  0  0  0
 20 21  1  0  0  0  0
 20 22  1  0  0  0  0
 22 23  1  0  0  0  0
 23 24  1  0  0  0  0
 24 25  1  0  0  0  0
 25 26  1  0  0  0  0
 20 26  1  0  0  0  0
M  END
>  <Catalog ID>
Z2760947618

>  <Plate_ID>
2026983-X50-04

>  <Well>
F09

>  <V, µL>
50

>  <Conc, mM>
10

>  <Formula>
C17H24N6O3

>  <MW>
360.4109

>  <Purity>
100

>  <PO>
5A-64168

>  <MW_salt>
0

>  <Stereochem.data>
Racemic or presumed racemic or meso

>  <Geometric.isomer>
None

>  <Chemical name>
1-{9-[(4-hydroxyoxan-4-yl)methyl]-9H-purin-6-yl}-N-methylpyrrolidine-2-carboxamide

>  <ClogP>
-1,62

>  <logS>
-2,922

>  <HBD>
2

>  <HBA>
7

>  <TPSA>
105,4

>  <RotBonds>
4

$$$$

  Mrv1925 04172511352D          

 26 30  0  0  1  0            999 V2000
    1.5249    4.3396    0.0000 O   0  0  0  0  0  0  0  0  0  0  0  0
    1.7798    3.5549    0.0000 C   0  0  0  0  0  0  0  0  0  0  0  0
    1.2949    2.8875    0.0000 N   0  0  0  0  0  0  0  0  0  0  0  0
    1.7798    2.2201    0.0000 C   0  0  0  0  0  0  0  0  0  0  0  0
    2.5645    2.4750    0.0000 C   0  0  2  0  0  0  0  0  0  0  0  0
    2.5645    3.3000    0.0000 C   0  0  1  0  0  0  0  0  0  0  0  0
    3.2789    3.7125    0.0000 C   0  0  0  0  0  0  0  0  0  0  0  0
    3.9934    3.3000    0.0000 C   0  0  0  0  0  0  0  0  0  0  0  0
    3.9934    2.4750    0.0000 C   0  0  0  0  0  0  0  0  0  0  0  0
    3.2789    2.0625    0.0000 N   0  0  0  0  0  0  0  0  0  0  0  0
    3.2789    1.2375    0.0000 C   0  0  0  0  0  0  0  0  0  0  0  0
    3.9934    0.8250    0.0000 N   0  0  0  0  0  0  0  0  0  0  0  0
    3.9934    0.0000    0.0000 C   0  0  0  0  0  0  0  0  0  0  0  0
    3.2789   -0.4125    0.0000 N   0  0  0  0  0  0  0  0  0  0  0  0
    2.5645    0.0000    0.0000 C   0  0  0  0  0  0  0  0  0  0  0  0
    2.5645    0.8250    0.0000 C   0  0  0  0  0  0  0  0  0  0  0  0
    1.7798    1.0799    0.0000 N   0  0  0  0  0  0  0  0  0  0  0  0
    1.2949    0.4125    0.0000 C   0  0  0  0  0  0  0  0  0  0  0  0
    1.7798   -0.2549    0.0000 N   0  0  0  0  0  0  0  0  0  0  0  0
    1.5249   -1.0396    0.0000 C   0  0  0  0  0  0  0  0  0  0  0  0
    0.7179   -1.2111    0.0000 C   0  0  0  0  0  0  0  0  0  0  0  0
    0.5464   -0.4041    0.0000 C   0  0  0  0  0  0  0  0  0  0  0  0
   -0.2382   -0.1492    0.0000 O   0  0  0  0  0  0  0  0  0  0  0  0
    0.8895   -2.0181    0.0000 C   0  0  0  0  0  0  0  0  0  0  0  0
    0.0825   -2.1896    0.0000 O   0  0  0  0  0  0  0  0  0  0  0  0
   -0.0890   -1.3826    0.0000 C   0  0  0  0  0  0  0  0  0  0  0  0
  1  2  2  0  0  0  0
  2  3  1  0  0  0  0
  3  4  1  0  0  0  0
  5  4  1  6  0  0  0
  5  6  1  0  0  0  0
  6  2  1  6  0  0  0
  6  7  1  0  0  0  0
  7  8  1  0  0  0  0
  8  9  1  0  0  0  0
  9 10  1  0  0  0  0
  5 10  1  0  0  0  0
 10 11  1  0  0  0  0
 11 12  1  0  0  0  0
 12 13  2  0  0  0  0
 13 14  1  0  0  0  0
 14 15  2  0  0  0  0
 15 16  1  0  0  0  0
 11 16  2  0  0  0  0
 16 17  1  0  0  0  0
 17 18  2  0  0  0  0
 18 19  1  0  0  0  0
 15 19  1  0  0  0  0
 19 20  1  0  0  0  0
 20 21  1  0  0  0  0
 21 22  1  0  0  0  0
 22 23  1  0  0  0  0
 21 24  1  0  0  0  0
 24 25  1  0  0  0  0
 25 26  1  0  0  0  0
 21 26  1  0  0  0  0
M  END
>  <Catalog ID>
Z2760966238

>  <Plate_ID>
2026983-X50-04

>  <Well>
G09

>  <V, µL>
50

>  <Conc, mM>
10

>  <Formula>
C17H22N6O3

>  <MW>
358.395

>  <Purity>
100

>  <PO>
5A-64168

>  <MW_salt>
0

>  <Stereochem.data>
Single known enantiomer

>  <Geometric.isomer>
None

>  <Chemical name>
(4aR,7aS)-1-(9-{[3-(hydroxymethyl)oxetan-3-yl]methyl}-9H-purin-6-yl)-octahydro-1H-pyrrolo[3,4-b]pyridin-5-one

>  <ClogP>
-1,837

>  <logS>
-1,911

>  <HBD>
2

>  <HBA>
7

>  <TPSA>
105,4

>  <RotBonds>
4

$$$$

  Mrv1925 04172511352D          

 29 33  0  0  0  0            999 V2000
    4.1764    3.9995    0.0000 C   0  0  0  0  0  0  0  0  0  0  0  0
    3.6914    3.3320    0.0000 C   0  0  0  0  0  0  0  0  0  0  0  0
    3.9464    2.5474    0.0000 C   0  0  0  0  0  0  0  0  0  0  0  0
    3.2789    2.0625    0.0000 N   0  0  0  0  0  0  0  0  0  0  0  0
    2.6115    2.5474    0.0000 C   0  0  0  0  0  0  0  0  0  0  0  0
    2.8664    3.3320    0.0000 C   0  0  0  0  0  0  0  0  0  0  0  0
    2.3815    3.9995    0.0000 N   0  0  0  0  0  0  0  0  0  0  0  0
    1.5610    3.9132    0.0000 C   0  0  0  0  0  0  0  0  0  0  0  0
    1.0761    4.5807    0.0000 C   0  0  0  0  0  0  0  0  0  0  0  0
    1.4117    5.3344    0.0000 O   0  0  0  0  0  0  0  0  0  0  0  0
    2.2321    5.4206    0.0000 C   0  0  0  0  0  0  0  0  0  0  0  0
    2.7171    4.7532    0.0000 C   0  0  0  0  0  0  0  0  0  0  0  0
    3.2789    1.2375    0.0000 C   0  0  0  0  0  0  0  0  0  0  0  0
    3.9934    0.8250    0.0000 N   0  0  0  0  0  0  0  0  0  0  0  0
    3.9934    0.0000    0.0000 C   0  0  0  0  0  0  0  0  0  0  0  0
    3.2789   -0.4125    0.0000 N   0  0  0  0  0  0  0  0  0  0  0  0
    2.5645    0.0000    0.0000 C   0  0  0  0  0  0  0  0  0  0  0  0
    2.5645    0.8250    0.0000 C   0  0  0  0  0  0  0  0  0  0  0  0
    1.7798    1.0799    0.0000 N   0  0  0  0  0  0  0  0  0  0  0  0
    1.2949    0.4125    0.0000 C   0  0  0  0  0  0  0  0  0  0  0  0
    1.7798   -0.2549    0.0000 N   0  0  0  0  0  0  0  0  0  0  0  0
    1.5249   -1.0396    0.0000 C   0  0  0  0  0  0  0  0  0  0  0  0
    1.8994   -1.7746    0.0000 C   0  0  0  0  0  0  0  0  0  0  0  0
    1.1644   -2.1492    0.0000 C   0  0  0  0  0  0  0  0  0  0  0  0
    1.5389   -2.8843    0.0000 C   0  0  0  0  0  0  0  0  0  0  0  0
    2.3628   -2.9274    0.0000 O   0  0  0  0  0  0  0  0  0  0  0  0
    0.4293   -2.5237    0.0000 C   0  0  0  0  0  0  0  0  0  0  0  0
   -0.2626   -2.0744    0.0000 O   0  0  0  0  0  0  0  0  0  0  0  0
    0.7898   -1.4141    0.0000 C   0  0  0  0  0  0  0  0  0  0  0  0
  1  2  1  0  0  0  0
  2  3  1  0  0  0  0
  3  4  1  0  0  0  0
  4  5  1  0  0  0  0
  5  6  1  0  0  0  0
  2  6  1  0  0  0  0
  6  7  1  0  0  0  0
  7  8  1  0  0  0  0
  8  9  1  0  0  0  0
  9 10  1  0  0  0  0
 10 11  1  0  0  0  0
 11 12  1  0  0  0  0
  7 12  1  0  0  0  0
  4 13  1  0  0  0  0
 13 14  1  0  0  0  0
 14 15  2  0  0  0  0
 15 16  1  0  0  0  0
 16 17  2  0  0  0  0
 17 18  1  0  0  0  0
 13 18  2  0  0  0  0
 18 19  1  0  0  0  0
 19 20  2  0  0  0  0
 20 21  1  0  0  0  0
 17 21  1  0  0  0  0
 21 22  1  0  0  0  0
 22 23  1  0  0  0  0
 23 24  1  0  0  0  0
 24 25  1  0  0  0  0
 25 26  1  0  0  0  0
 24 27  1  0  0  0  0
 27 28  1  0  0  0  0
 24 29  1  0  0  0  0
 22 29  1  0  0  0  0
M  END
>  <Catalog ID>
Z2760949154

>  <Plate_ID>
2026983-X50-04

>  <Well>
H09

>  <V, µL>
50

>  <Conc, mM>
10

>  <Formula>
C20H30N6O3

>  <MW>
402.4906

>  <Purity>
90

>  <PO>
5A-64168

>  <MW_salt>
0

>  <Stereochem.data>
Diastereomeric mixture

>  <Geometric.isomer>
Unknown

>  <Chemical name>
[1-(hydroxymethyl)-3-{6-[3-methyl-4-(morpholin-4-yl)pyrrolidin-1-yl]-9H-purin-9-yl}cyclobutyl]methanol

>  <ClogP>
-0,921

>  <logS>
-1,911

>  <HBD>
2

>  <HBA>
8

>  <TPSA>
99,77

>  <RotBonds>
5

$$$$

  Mrv1925 04172511352D          

 19 20  0  0  0  0            999 V2000
    0.7145   -1.2375    0.0000 C   0  0  0  0  0  0  0  0  0  0  0  0
    1.4289   -1.6500    0.0000 C   0  0  0  0  0  0  0  0  0  0  0  0
    1.4289   -2.4750    0.0000 N   0  0  0  0  0  0  0  0  0  0  0  0
    2.1434   -2.8875    0.0000 C   0  0  0  0  0  0  0  0  0  0  0  0
    2.1434   -3.7125    0.0000 C   0  0  0  0  0  0  0  0  0  0  0  0
    2.8579   -4.1250    0.0000 C   0  0  0  0  0  0  0  0  0  0  0  0
    3.5724   -3.7125    0.0000 N   0  0  0  0  0  0  0  0  0  0  0  0
    4.2868   -4.1250    0.0000 C   0  0  0  0  0  0  0  0  0  0  0  0
    5.0013   -3.7125    0.0000 N   0  0  0  0  0  0  0  0  0  0  0  0
    5.7158   -4.1250    0.0000 C   0  0  0  0  0  0  0  0  0  0  0  0
    5.7158   -4.9500    0.0000 N   0  0  0  0  0  0  0  0  0  0  0  0
    5.0013   -5.3625    0.0000 C   0  0  0  0  0  0  0  0  0  0  0  0
    4.2868   -4.9500    0.0000 C   0  0  0  0  0  0  0  0  0  0  0  0
    3.5724   -5.3625    0.0000 C   0  0  0  0  0  0  0  0  0  0  0  0
    1.4289   -4.1250    0.0000 C   0  0  0  0  0  0  0  0  0  0  0  0
    1.4289   -4.9500    0.0000 O   0  0  0  0  0  0  0  0  0  0  0  0
    0.7145   -3.7125    0.0000 N   0  0  0  0  0  0  0  0  0  0  0  0
    0.7145   -2.8875    0.0000 C   0  0  0  0  0  0  0  0  0  0  0  0
    0.0000   -2.4750    0.0000 O   0  0  0  0  0  0  0  0  0  0  0  0
  1  2  1  0  0  0  0
  2  3  1  0  0  0  0
  3  4  1  0  0  0  0
  4  5  2  0  0  0  0
  5  6  1  0  0  0  0
  6  7  1  0  0  0  0
  7  8  1  0  0  0  0
  8  9  1  0  0  0  0
  9 10  2  0  0  0  0
 10 11  1  0  0  0  0
 11 12  2  0  0  0  0
 12 13  1  0  0  0  0
  8 13  2  0  0  0  0
 13 14  1  0  0  0  0
  5 15  1  0  0  0  0
 15 16  2  0  0  0  0
 15 17  1  0  0  0  0
 17 18  1  0  0  0  0
  3 18  1  0  0  0  0
 18 19  2  0  0  0  0
M  END
>  <Catalog ID>
Z3077771951

>  <Plate_ID>
2026983-X50-04

>  <Well>
A10

>  <V, µL>
50

>  <Conc, mM>
10

>  <Formula>
C12H15N5O2

>  <MW>
261.2798

>  <Purity>
100

>  <PO>
5A-64168

>  <MW_salt>
0

>  <Stereochem.data>
Achiral

>  <Geometric.isomer>
None

>  <Chemical name>
1-ethyl-5-{[(5-methylpyrimidin-4-yl)amino]methyl}-1,2,3,4-tetrahydropyrimidine-2,4-dione

>  <ClogP>
-0,367

>  <logS>
-2,124

>  <HBD>
2

>  <HBA>
5

>  <TPSA>
87,22

>  <RotBonds>
4

$$$$

  Mrv1925 04172511352D          

 28 31  0  0  0  0            999 V2000
    2.5645    6.6000    0.0000 N   0  0  0  0  0  0  0  0  0  0  0  0
    2.5645    5.7750    0.0000 C   0  0  0  0  0  0  0  0  0  0  0  0
    2.5645    4.9500    0.0000 C   0  0  0  0  0  0  0  0  0  0  0  0
    3.2789    4.5375    0.0000 C   0  0  0  0  0  0  0  0  0  0  0  0
    3.9934    4.9500    0.0000 O   0  0  0  0  0  0  0  0  0  0  0  0
    3.2789    3.7125    0.0000 N   0  0  0  0  0  0  0  0  0  0  0  0
    3.9934    3.3000    0.0000 C   0  0  0  0  0  0  0  0  0  0  0  0
    3.9934    2.4750    0.0000 C   0  0  0  0  0  0  0  0  0  0  0  0
    3.2789    2.0625    0.0000 N   0  0  0  0  0  0  0  0  0  0  0  0
    2.5645    2.4750    0.0000 C   0  0  0  0  0  0  0  0  0  0  0  0
    2.5645    3.3000    0.0000 C   0  0  0  0  0  0  0  0  0  0  0  0
    3.2789    1.2375    0.0000 C   0  0  0  0  0  0  0  0  0  0  0  0
    3.9934    0.8250    0.0000 N   0  0  0  0  0  0  0  0  0  0  0  0
    3.9934    0.0000    0.0000 C   0  0  0  0  0  0  0  0  0  0  0  0
    3.2789   -0.4125    0.0000 N   0  0  0  0  0  0  0  0  0  0  0  0
    2.5645    0.0000    0.0000 C   0  0  0  0  0  0  0  0  0  0  0  0
    2.5645    0.8250    0.0000 C   0  0  0  0  0  0  0  0  0  0  0  0
    1.7798    1.0799    0.0000 N   0  0  0  0  0  0  0  0  0  0  0  0
    1.2949    0.4125    0.0000 C   0  0  0  0  0  0  0  0  0  0  0  0
    1.7798   -0.2549    0.0000 N   0  0  0  0  0  0  0  0  0  0  0  0
    1.5249   -1.0396    0.0000 C   0  0  0  0  0  0  0  0  0  0  0  0
    1.8994   -1.7746    0.0000 C   0  0  0  0  0  0  0  0  0  0  0  0
    1.1644   -2.1492    0.0000 C   0  0  0  0  0  0  0  0  0  0  0  0
    1.5389   -2.8843    0.0000 C   0  0  0  0  0  0  0  0  0  0  0  0
    2.3628   -2.9274    0.0000 O   0  0  0  0  0  0  0  0  0  0  0  0
    0.4293   -2.5237    0.0000 C   0  0  0  0  0  0  0  0  0  0  0  0
   -0.2626   -2.0744    0.0000 O   0  0  0  0  0  0  0  0  0  0  0  0
    0.7898   -1.4141    0.0000 C   0  0  0  0  0  0  0  0  0  0  0  0
  1  2  3  0  0  0  0
  2  3  1  0  0  0  0
  3  4  1  0  0  0  0
  4  5  2  0  0  0  0
  4  6  1  0  0  0  0
  6  7  1  0  0  0  0
  7  8  1  0  0  0  0
  8  9  1  0  0  0  0
  9 10  1  0  0  0  0
 10 11  1  0  0  0  0
  6 11  1  0  0  0  0
  9 12  1  0  0  0  0
 12 13  1  0  0  0  0
 13 14  2  0  0  0  0
 14 15  1  0  0  0  0
 15 16  2  0  0  0  0
 16 17  1  0  0  0  0
 12 17  2  0  0  0  0
 17 18  1  0  0  0  0
 18 19  2  0  0  0  0
 19 20  1  0  0  0  0
 16 20  1  0  0  0  0
 20 21  1  0  0  0  0
 21 22  1  0  0  0  0
 22 23  1  0  0  0  0
 23 24  1  0  0  0  0
 24 25  1  0  0  0  0
 23 26  1  0  0  0  0
 26 27  1  0  0  0  0
 23 28  1  0  0  0  0
 21 28  1  0  0  0  0
M  END
>  <Catalog ID>
Z2760954288

>  <Plate_ID>
2026983-X50-04

>  <Well>
B10

>  <V, µL>
50

>  <Conc, mM>
10

>  <Formula>
C18H23N7O3

>  <MW>
385.4203

>  <Purity>
97.91

>  <PO>
5A-64168

>  <MW_salt>
0

>  <Stereochem.data>
Achiral

>  <Geometric.isomer>
None

>  <Chemical name>
3-(4-{9-[3,3-bis(hydroxymethyl)cyclobutyl]-9H-purin-6-yl}piperazin-1-yl)-3-oxopropanenitrile

>  <ClogP>
-2,071

>  <logS>
-1,377

>  <HBD>
2

>  <HBA>
8

>  <TPSA>
131,4

>  <RotBonds>
5

$$$$

  Mrv1925 04172511352D          

 28 31  0  0  0  0            999 V2000
   -2.0367    2.0009    0.0000 C   0  0  0  0  0  0  0  0  0  0  0  0
   -2.0367    1.1759    0.0000 O   0  0  0  0  0  0  0  0  0  0  0  0
   -1.3222    0.7634    0.0000 C   0  0  0  0  0  0  0  0  0  0  0  0
   -0.6078    1.1759    0.0000 C   0  0  0  0  0  0  0  0  0  0  0  0
    0.1067    0.7634    0.0000 C   0  0  0  0  0  0  0  0  0  0  0  0
    0.1067   -0.0616    0.0000 C   0  0  0  0  0  0  0  0  0  0  0  0
   -0.6078   -0.4741    0.0000 C   0  0  0  0  0  0  0  0  0  0  0  0
   -1.3222   -0.0616    0.0000 C   0  0  0  0  0  0  0  0  0  0  0  0
   -0.6078   -1.2991    0.0000 C   0  0  0  0  0  0  0  0  0  0  0  0
    0.0597   -1.7840    0.0000 N   0  0  0  0  0  0  0  0  0  0  0  0
   -0.1953   -2.5687    0.0000 O   0  0  0  0  0  0  0  0  0  0  0  0
   -1.0203   -2.5687    0.0000 C   0  0  0  0  0  0  0  0  0  0  0  0
   -1.5052   -3.2361    0.0000 C   0  0  0  0  0  0  0  0  0  0  0  0
   -1.1696   -3.9898    0.0000 N   0  0  0  0  0  0  0  0  0  0  0  0
   -0.3491   -4.0760    0.0000 C   0  0  0  0  0  0  0  0  0  0  0  0
    0.1358   -3.4086    0.0000 O   0  0  0  0  0  0  0  0  0  0  0  0
   -0.0136   -4.8297    0.0000 C   0  0  0  0  0  0  0  0  0  0  0  0
    0.8069   -4.9159    0.0000 F   0  0  0  0  0  0  0  0  0  0  0  0
   -0.4985   -5.4971    0.0000 C   0  0  0  0  0  0  0  0  0  0  0  0
   -1.3190   -5.4109    0.0000 N   0  0  0  0  0  0  0  0  0  0  0  0
   -1.6546   -4.6572    0.0000 C   0  0  0  0  0  0  0  0  0  0  0  0
   -2.4750   -4.5710    0.0000 O   0  0  0  0  0  0  0  0  0  0  0  0
   -1.8039   -6.0783    0.0000 C   0  0  0  0  0  0  0  0  0  0  0  0
   -1.5490   -6.8629    0.0000 C   0  0  0  0  0  0  0  0  0  0  0  0
   -2.2164   -7.3479    0.0000 C   0  0  0  0  0  0  0  0  0  0  0  0
   -2.8839   -6.8629    0.0000 C   0  0  0  0  0  0  0  0  0  0  0  0
   -2.6289   -6.0783    0.0000 O   0  0  0  0  0  0  0  0  0  0  0  0
   -1.2752   -1.7840    0.0000 N   0  0  0  0  0  0  0  0  0  0  0  0
  1  2  1  0  0  0  0
  2  3  1  0  0  0  0
  3  4  1  0  0  0  0
  4  5  2  0  0  0  0
  5  6  1  0  0  0  0
  6  7  2  0  0  0  0
  7  8  1  0  0  0  0
  3  8  2  0  0  0  0
  7  9  1  0  0  0  0
  9 10  2  0  0  0  0
 10 11  1  0  0  0  0
 11 12  1  0  0  0  0
 12 13  1  0  0  0  0
 13 14  1  0  0  0  0
 14 15  1  0  0  0  0
 15 16  2  0  0  0  0
 15 17  1  0  0  0  0
 17 18  1  0  0  0  0
 17 19  2  0  0  0  0
 19 20  1  0  0  0  0
 20 21  1  0  0  0  0
 14 21  1  0  0  0  0
 21 22  2  0  0  0  0
 20 23  1  0  0  0  0
 23 24  1  0  0  0  0
 24 25  1  0  0  0  0
 25 26  1  0  0  0  0
 26 27  1  0  0  0  0
 23 27  1  0  0  0  0
 12 28  2  0  0  0  0
  9 28  1  0  0  0  0
M  END
>  <Catalog ID>
Z107296904

>  <Plate_ID>
2026983-X50-04

>  <Well>
C10

>  <V, µL>
50

>  <Conc, mM>
10

>  <Formula>
C18H17FN4O5

>  <MW>
388.3498

>  <Purity>
91.46

>  <PO>
5A-64168

>  <MW_salt>
0

>  <Stereochem.data>
Racemic or presumed racemic or meso

>  <Geometric.isomer>
None

>  <Chemical name>
5-fluoro-3-{[3-(3-methoxyphenyl)-1,2,4-oxadiazol-5-yl]methyl}-1-(oxolan-2-yl)-1,2,3,4-tetrahydropyrimidine-2,4-dione

>  <ClogP>
1,857

>  <logS>
-2,97

>  <HBD>
0

>  <HBA>
6

>  <TPSA>
98

>  <RotBonds>
5

$$$$

  Mrv1925 04172511352D          

 26 29  0  0  0  0            999 V2000
    2.5645    3.3000    0.0000 C   0  0  0  0  0  0  0  0  0  0  0  0
    2.5645    2.4750    0.0000 C   0  0  0  0  0  0  0  0  0  0  0  0
    3.2789    2.0625    0.0000 N   0  0  0  0  0  0  0  0  0  0  0  0
    3.2789    1.2375    0.0000 C   0  0  0  0  0  0  0  0  0  0  0  0
    3.9934    0.8250    0.0000 N   0  0  0  0  0  0  0  0  0  0  0  0
    3.9934    0.0000    0.0000 C   0  0  0  0  0  0  0  0  0  0  0  0
    3.2789   -0.4125    0.0000 N   0  0  0  0  0  0  0  0  0  0  0  0
    2.5645    0.0000    0.0000 C   0  0  0  0  0  0  0  0  0  0  0  0
    2.5645    0.8250    0.0000 C   0  0  0  0  0  0  0  0  0  0  0  0
    1.7798    1.0799    0.0000 N   0  0  0  0  0  0  0  0  0  0  0  0
    1.2949    0.4125    0.0000 C   0  0  0  0  0  0  0  0  0  0  0  0
    1.7798   -0.2549    0.0000 N   0  0  0  0  0  0  0  0  0  0  0  0
    1.5249   -1.0396    0.0000 C   0  0  0  0  0  0  0  0  0  0  0  0
    1.8994   -1.7746    0.0000 C   0  0  0  0  0  0  0  0  0  0  0  0
    1.1644   -2.1492    0.0000 C   0  0  0  0  0  0  0  0  0  0  0  0
    1.5389   -2.8843    0.0000 C   0  0  0  0  0  0  0  0  0  0  0  0
    2.3628   -2.9274    0.0000 O   0  0  0  0  0  0  0  0  0  0  0  0
    0.4293   -2.5237    0.0000 C   0  0  0  0  0  0  0  0  0  0  0  0
   -0.2626   -2.0744    0.0000 O   0  0  0  0  0  0  0  0  0  0  0  0
    0.7898   -1.4141    0.0000 C   0  0  0  0  0  0  0  0  0  0  0  0
    3.9934    2.4750    0.0000 C   0  0  0  0  0  0  0  0  0  0  0  0
    4.0796    3.2955    0.0000 C   0  0  0  0  0  0  0  0  0  0  0  0
    4.8866    3.4670    0.0000 C   0  0  0  0  0  0  0  0  0  0  0  0
    5.2991    2.7525    0.0000 N   0  0  0  0  0  0  0  0  0  0  0  0
    4.7471    2.1394    0.0000 C   0  0  0  0  0  0  0  0  0  0  0  0
    4.9186    1.3325    0.0000 O   0  0  0  0  0  0  0  0  0  0  0  0
  1  2  1  0  0  0  0
  2  3  1  0  0  0  0
  3  4  1  0  0  0  0
  4  5  1  0  0  0  0
  5  6  2  0  0  0  0
  6  7  1  0  0  0  0
  7  8  2  0  0  0  0
  8  9  1  0  0  0  0
  4  9  2  0  0  0  0
  9 10  1  0  0  0  0
 10 11  2  0  0  0  0
 11 12  1  0  0  0  0
  8 12  1  0  0  0  0
 12 13  1  0  0  0  0
 13 14  1  0  0  0  0
 14 15  1  0  0  0  0
 15 16  1  0  0  0  0
 16 17  1  0  0  0  0
 15 18  1  0  0  0  0
 18 19  1  0  0  0  0
 15 20  1  0  0  0  0
 13 20  1  0  0  0  0
  3 21  1  0  0  0  0
 21 22  1  0  0  0  0
 22 23  1  0  0  0  0
 23 24  1  0  0  0  0
 24 25  1  0  0  0  0
 21 25  1  0  0  0  0
 25 26  2  0  0  0  0
M  END
>  <Catalog ID>
Z2760965791

>  <Plate_ID>
2026983-X50-04

>  <Well>
D10

>  <V, µL>
50

>  <Conc, mM>
10

>  <Formula>
C17H24N6O3

>  <MW>
360.4109

>  <Purity>
100

>  <PO>
5A-64168

>  <MW_salt>
0

>  <Stereochem.data>
Racemic or presumed racemic or meso

>  <Geometric.isomer>
None

>  <Chemical name>
3-({9-[3,3-bis(hydroxymethyl)cyclobutyl]-9H-purin-6-yl}(ethyl)amino)pyrrolidin-2-one

>  <ClogP>
-1,474

>  <logS>
-1,727

>  <HBD>
3

>  <HBA>
7

>  <TPSA>
116,4

>  <RotBonds>
6

$$$$

  Mrv1925 04172511352D          

 30 33  0  0  0  0            999 V2000
   -0.7145   -1.2375    0.0000 C   0  0  0  0  0  0  0  0  0  0  0  0
    0.0000   -1.6500    0.0000 C   0  0  0  0  0  0  0  0  0  0  0  0
    0.0000   -2.4750    0.0000 N   0  0  0  0  0  0  0  0  0  0  0  0
   -0.7145   -2.8875    0.0000 C   0  0  0  0  0  0  0  0  0  0  0  0
   -1.4289   -2.4750    0.0000 O   0  0  0  0  0  0  0  0  0  0  0  0
   -0.7145   -3.7125    0.0000 C   0  0  0  0  0  0  0  0  0  0  0  0
   -1.4289   -4.1250    0.0000 N   0  0  0  0  0  0  0  0  0  0  0  0
   -1.4289   -4.9500    0.0000 C   0  0  0  0  0  0  0  0  0  0  0  0
   -0.7145   -5.3625    0.0000 O   0  0  0  0  0  0  0  0  0  0  0  0
   -2.1434   -5.3625    0.0000 C   0  0  0  0  0  0  0  0  0  0  0  0
   -2.1434   -6.1875    0.0000 F   0  0  0  0  0  0  0  0  0  0  0  0
   -2.8579   -4.9500    0.0000 C   0  0  0  0  0  0  0  0  0  0  0  0
   -2.8579   -4.1250    0.0000 N   0  0  0  0  0  0  0  0  0  0  0  0
   -2.1434   -3.7125    0.0000 C   0  0  0  0  0  0  0  0  0  0  0  0
   -2.1434   -2.8875    0.0000 O   0  0  0  0  0  0  0  0  0  0  0  0
   -3.5724   -3.7125    0.0000 C   0  0  0  0  0  0  0  0  0  0  0  0
   -4.3260   -4.0481    0.0000 C   0  0  0  0  0  0  0  0  0  0  0  0
   -4.8781   -3.4350    0.0000 C   0  0  0  0  0  0  0  0  0  0  0  0
   -4.4656   -2.7205    0.0000 C   0  0  0  0  0  0  0  0  0  0  0  0
   -3.6586   -2.8920    0.0000 O   0  0  0  0  0  0  0  0  0  0  0  0
    0.7145   -1.2375    0.0000 C   0  0  0  0  0  0  0  0  0  0  0  0
    0.7145   -0.4125    0.0000 C   0  0  0  0  0  0  0  0  0  0  0  0
    1.4289    0.0000    0.0000 C   0  0  0  0  0  0  0  0  0  0  0  0
    2.1434   -0.4125    0.0000 C   0  0  0  0  0  0  0  0  0  0  0  0
    2.8579    0.0000    0.0000 C   0  0  0  0  0  0  0  0  0  0  0  0
    3.5724   -0.4125    0.0000 C   0  0  0  0  0  0  0  0  0  0  0  0
    3.5724   -1.2375    0.0000 C   0  0  0  0  0  0  0  0  0  0  0  0
    2.8579   -1.6500    0.0000 C   0  0  0  0  0  0  0  0  0  0  0  0
    2.1434   -1.2375    0.0000 C   0  0  0  0  0  0  0  0  0  0  0  0
    1.4289   -1.6500    0.0000 C   0  0  0  0  0  0  0  0  0  0  0  0
  1  2  1  0  0  0  0
  2  3  1  0  0  0  0
  3  4  1  0  0  0  0
  4  5  2  0  0  0  0
  4  6  1  0  0  0  0
  6  7  1  0  0  0  0
  7  8  1  0  0  0  0
  8  9  2  0  0  0  0
  8 10  1  0  0  0  0
 10 11  1  0  0  0  0
 10 12  2  0  0  0  0
 12 13  1  0  0  0  0
 13 14  1  0  0  0  0
  7 14  1  0  0  0  0
 14 15  2  0  0  0  0
 13 16  1  0  0  0  0
 16 17  1  0  0  0  0
 17 18  1  0  0  0  0
 18 19  1  0  0  0  0
 19 20  1  0  0  0  0
 16 20  1  0  0  0  0
  2 21  1  0  0  0  0
 21 22  1  0  0  0  0
 22 23  2  0  0  0  0
 23 24  1  0  0  0  0
 24 25  2  0  0  0  0
 25 26  1  0  0  0  0
 26 27  2  0  0  0  0
 27 28  1  0  0  0  0
 28 29  2  0  0  0  0
 24 29  1  0  0  0  0
 29 30  1  0  0  0  0
 21 30  2  0  0  0  0
M  END
>  <Catalog ID>
Z107296968

>  <Plate_ID>
2026983-X50-04

>  <Well>
E10

>  <V, µL>
50

>  <Conc, mM>
10

>  <Formula>
C22H22FN3O4

>  <MW>
411.4262

>  <Purity>
100

>  <PO>
5A-64168

>  <MW_salt>
0

>  <Stereochem.data>
Diastereomeric mixture

>  <Geometric.isomer>
None

>  <Chemical name>
2-[5-fluoro-2,6-dioxo-3-(oxolan-2-yl)-1,2,3,6-tetrahydropyrimidin-1-yl]-N-[1-(naphthalen-2-yl)ethyl]acetamide

>  <ClogP>
3,554

>  <logS>
-4,4

>  <HBD>
1

>  <HBA>
4

>  <TPSA>
78,95

>  <RotBonds>
5

$$$$

  Mrv1925 04172511352D          

 26 29  0  0  0  0            999 V2000
    1.4698    4.2185    0.0000 C   0  0  0  0  0  0  0  0  0  0  0  0
    2.2823    4.0752    0.0000 O   0  0  0  0  0  0  0  0  0  0  0  0
    2.5645    3.3000    0.0000 C   0  0  0  0  0  0  0  0  0  0  0  0
    1.7520    3.1567    0.0000 C   0  0  0  0  0  0  0  0  0  0  0  0
    3.2789    3.7125    0.0000 C   0  0  0  0  0  0  0  0  0  0  0  0
    3.9934    3.3000    0.0000 C   0  0  0  0  0  0  0  0  0  0  0  0
    3.9934    2.4750    0.0000 C   0  0  0  0  0  0  0  0  0  0  0  0
    3.2789    2.0625    0.0000 N   0  0  0  0  0  0  0  0  0  0  0  0
    2.5645    2.4750    0.0000 C   0  0  0  0  0  0  0  0  0  0  0  0
    3.2789    1.2375    0.0000 C   0  0  0  0  0  0  0  0  0  0  0  0
    3.9934    0.8250    0.0000 N   0  0  0  0  0  0  0  0  0  0  0  0
    3.9934    0.0000    0.0000 C   0  0  0  0  0  0  0  0  0  0  0  0
    3.2789   -0.4125    0.0000 N   0  0  0  0  0  0  0  0  0  0  0  0
    2.5645    0.0000    0.0000 C   0  0  0  0  0  0  0  0  0  0  0  0
    2.5645    0.8250    0.0000 C   0  0  0  0  0  0  0  0  0  0  0  0
    1.7798    1.0799    0.0000 N   0  0  0  0  0  0  0  0  0  0  0  0
    1.2949    0.4125    0.0000 C   0  0  0  0  0  0  0  0  0  0  0  0
    1.7798   -0.2549    0.0000 N   0  0  0  0  0  0  0  0  0  0  0  0
    1.5249   -1.0396    0.0000 C   0  0  0  0  0  0  0  0  0  0  0  0
    1.8994   -1.7746    0.0000 C   0  0  0  0  0  0  0  0  0  0  0  0
    1.1644   -2.1492    0.0000 C   0  0  0  0  0  0  0  0  0  0  0  0
    1.5389   -2.8843    0.0000 C   0  0  0  0  0  0  0  0  0  0  0  0
    2.3628   -2.9274    0.0000 O   0  0  0  0  0  0  0  0  0  0  0  0
    0.4293   -2.5237    0.0000 C   0  0  0  0  0  0  0  0  0  0  0  0
   -0.2626   -2.0744    0.0000 O   0  0  0  0  0  0  0  0  0  0  0  0
    0.7898   -1.4141    0.0000 C   0  0  0  0  0  0  0  0  0  0  0  0
  1  2  1  0  0  0  0
  2  3  1  0  0  0  0
  3  4  1  0  0  0  0
  3  5  1  0  0  0  0
  5  6  1  0  0  0  0
  6  7  1  0  0  0  0
  7  8  1  0  0  0  0
  8  9  1  0  0  0  0
  3  9  1  0  0  0  0
  8 10  1  0  0  0  0
 10 11  1  0  0  0  0
 11 12  2  0  0  0  0
 12 13  1  0  0  0  0
 13 14  2  0  0  0  0
 14 15  1  0  0  0  0
 10 15  2  0  0  0  0
 15 16  1  0  0  0  0
 16 17  2  0  0  0  0
 17 18  1  0  0  0  0
 14 18  1  0  0  0  0
 18 19  1  0  0  0  0
 19 20  1  0  0  0  0
 20 21  1  0  0  0  0
 21 22  1  0  0  0  0
 22 23  1  0  0  0  0
 21 24  1  0  0  0  0
 24 25  1  0  0  0  0
 21 26  1  0  0  0  0
 19 26  1  0  0  0  0
M  END
>  <Catalog ID>
Z2760968088

>  <Plate_ID>
2026983-X50-04

>  <Well>
F10

>  <V, µL>
50

>  <Conc, mM>
10

>  <Formula>
C18H27N5O3

>  <MW>
361.4387

>  <Purity>
97.01

>  <PO>
5A-64168

>  <MW_salt>
0

>  <Stereochem.data>
Racemic or presumed racemic or meso

>  <Geometric.isomer>
None

>  <Chemical name>
[1-(hydroxymethyl)-3-[6-(3-methoxy-3-methylpiperidin-1-yl)-9H-purin-9-yl]cyclobutyl]methanol

>  <ClogP>
-0,268

>  <logS>
-1,834

>  <HBD>
2

>  <HBA>
7

>  <TPSA>
96,53

>  <RotBonds>
5

$$$$

  Mrv1925 04172511352D          

 28 32  0  0  0  0            999 V2000
   -4.8336   -2.1139    0.0000 O   0  0  0  0  0  0  0  0  0  0  0  0
   -4.4590   -2.8489    0.0000 C   0  0  0  0  0  0  0  0  0  0  0  0
   -3.6351   -2.8921    0.0000 C   0  0  0  0  0  0  0  0  0  0  0  0
   -3.6783   -3.7160    0.0000 C   0  0  0  0  0  0  0  0  0  0  0  0
   -2.9864   -4.1653    0.0000 O   0  0  0  0  0  0  0  0  0  0  0  0
   -3.5920   -2.0682    0.0000 C   0  0  0  0  0  0  0  0  0  0  0  0
   -2.7681   -2.1114    0.0000 C   0  0  0  0  0  0  0  0  0  0  0  0
   -2.8113   -2.9353    0.0000 C   0  0  0  0  0  0  0  0  0  0  0  0
   -2.1550   -1.5594    0.0000 N   0  0  0  0  0  0  0  0  0  0  0  0
   -2.2412   -0.7389    0.0000 C   0  0  0  0  0  0  0  0  0  0  0  0
   -1.4876   -0.4033    0.0000 N   0  0  0  0  0  0  0  0  0  0  0  0
   -0.9355   -1.0164    0.0000 C   0  0  0  0  0  0  0  0  0  0  0  0
   -0.1105   -1.0164    0.0000 C   0  0  0  0  0  0  0  0  0  0  0  0
    0.3020   -1.7309    0.0000 N   0  0  0  0  0  0  0  0  0  0  0  0
   -0.1105   -2.4454    0.0000 C   0  0  0  0  0  0  0  0  0  0  0  0
   -0.9355   -2.4454    0.0000 N   0  0  0  0  0  0  0  0  0  0  0  0
   -1.3480   -1.7309    0.0000 C   0  0  0  0  0  0  0  0  0  0  0  0
    0.3020   -0.3020    0.0000 N   0  0  0  0  0  0  0  0  0  0  0  0
   -0.1105    0.4125    0.0000 C   0  0  0  0  0  0  0  0  0  0  0  0
    0.3020    1.1270    0.0000 C   0  0  0  0  0  0  0  0  0  0  0  0
    1.1270    1.1270    0.0000 O   0  0  0  0  0  0  0  0  0  0  0  0
    1.5395    0.4125    0.0000 C   0  0  0  0  0  0  0  0  0  0  0  0
    1.9520    1.1270    0.0000 C   0  0  0  0  0  0  0  0  0  0  0  0
    2.7770    1.1270    0.0000 C   0  0  0  0  0  0  0  0  0  0  0  0
    3.1895    0.4125    0.0000 C   0  0  0  0  0  0  0  0  0  0  0  0
    2.7770   -0.3020    0.0000 O   0  0  0  0  0  0  0  0  0  0  0  0
    1.9520   -0.3020    0.0000 C   0  0  0  0  0  0  0  0  0  0  0  0
    1.1270   -0.3020    0.0000 C   0  0  0  0  0  0  0  0  0  0  0  0
  1  2  1  0  0  0  0
  2  3  1  0  0  0  0
  3  4  1  0  0  0  0
  4  5  1  0  0  0  0
  3  6  1  0  0  0  0
  6  7  1  0  0  0  0
  7  8  1  0  0  0  0
  3  8  1  0  0  0  0
  7  9  1  0  0  0  0
  9 10  1  0  0  0  0
 10 11  2  0  0  0  0
 11 12  1  0  0  0  0
 12 13  1  0  0  0  0
 13 14  2  0  0  0  0
 14 15  1  0  0  0  0
 15 16  2  0  0  0  0
 16 17  1  0  0  0  0
 12 17  2  0  0  0  0
  9 17  1  0  0  0  0
 13 18  1  0  0  0  0
 18 19  1  0  0  0  0
 19 20  1  0  0  0  0
 20 21  1  0  0  0  0
 21 22  1  0  0  0  0
 22 23  1  0  0  0  0
 23 24  1  0  0  0  0
 24 25  1  0  0  0  0
 25 26  1  0  0  0  0
 26 27  1  0  0  0  0
 22 27  1  0  0  0  0
 22 28  1  0  0  0  0
 18 28  1  0  0  0  0
M  END
>  <Catalog ID>
Z2760969842

>  <Plate_ID>
2026983-X50-04

>  <Well>
G10

>  <V, µL>
50

>  <Conc, mM>
10

>  <Formula>
C19H27N5O4

>  <MW>
389.4488

>  <Purity>
91

>  <PO>
5A-64168

>  <MW_salt>
0

>  <Stereochem.data>
Racemic or presumed racemic or meso

>  <Geometric.isomer>
None

>  <Chemical name>
[3-(6-{1,8-dioxa-4-azaspiro[5.5]undecan-4-yl}-9H-purin-9-yl)-1-(hydroxymethyl)cyclobutyl]methanol

>  <ClogP>
-1,476

>  <logS>
-1,674

>  <HBD>
2

>  <HBA>
8

>  <TPSA>
105,76

>  <RotBonds>
4

$$$$

  Mrv1925 04172511352D          

 31 31  0  0  0  0            999 V2000
   -0.7145   -0.8839    0.0000 O   0  0  0  0  0  0  0  0  0  0  0  0
    0.0000   -0.4714    0.0000 C   0  0  0  0  0  0  0  0  0  0  0  0
    0.7145   -0.8839    0.0000 O   0  0  0  0  0  0  0  0  0  0  0  0
    0.0000    0.3536    0.0000 C   0  0  0  0  0  0  0  0  0  0  0  0
    0.0000    1.1786    0.0000 F   0  0  0  0  0  0  0  0  0  0  0  0
    0.8250    0.3536    0.0000 F   0  0  0  0  0  0  0  0  0  0  0  0
   -0.8250    0.3536    0.0000 F   0  0  0  0  0  0  0  0  0  0  0  0
    3.1821    0.7836    0.0000 C   0  0  0  0  0  0  0  0  0  0  0  0
    3.7433    1.3884    0.0000 C   0  0  0  0  0  0  0  0  0  0  0  0
    3.4419    2.1564    0.0000 C   0  0  0  0  0  0  0  0  0  0  0  0
    3.8544    2.8708    0.0000 N   0  0  0  0  0  0  0  0  0  0  0  0
    4.6702    2.9938    0.0000 C   0  0  0  0  0  0  0  0  0  0  0  0
    4.9133    3.7821    0.0000 C   0  0  0  0  0  0  0  0  0  0  0  0
    5.2749    2.4327    0.0000 C   0  0  0  0  0  0  0  0  0  0  0  0
    5.2133    1.6100    0.0000 N   0  0  0  0  0  0  0  0  0  0  0  0
    4.5316    1.1452    0.0000 C   0  0  0  0  0  0  0  0  0  0  0  0
    5.9278    1.1975    0.0000 C   0  0  0  0  0  0  0  0  0  0  0  0
    6.6422    1.6100    0.0000 O   0  0  0  0  0  0  0  0  0  0  0  0
    5.9278    0.3725    0.0000 C   0  0  0  0  0  0  0  0  0  0  0  0
    6.6422   -0.0400    0.0000 C   0  0  0  0  0  0  0  0  0  0  0  0
    6.6422   -0.8650    0.0000 N   0  0  0  0  0  0  0  0  0  0  0  0
    7.3567   -1.2775    0.0000 C   0  0  0  0  0  0  0  0  0  0  0  0
    7.3567   -2.1025    0.0000 C   0  0  0  0  0  0  0  0  0  0  0  0
    8.0712   -2.5150    0.0000 C   0  0  0  0  0  0  0  0  0  0  0  0
    8.7856   -2.1025    0.0000 N   0  0  0  0  0  0  0  0  0  0  0  0
    8.0712   -3.3400    0.0000 O   0  0  0  0  0  0  0  0  0  0  0  0
    6.6422   -2.5150    0.0000 C   0  0  0  0  0  0  0  0  0  0  0  0
    6.6422   -3.3400    0.0000 O   0  0  0  0  0  0  0  0  0  0  0  0
    5.9278   -2.1025    0.0000 N   0  0  0  0  0  0  0  0  0  0  0  0
    5.9278   -1.2775    0.0000 C   0  0  0  0  0  0  0  0  0  0  0  0
    5.2133   -0.8650    0.0000 O   0  0  0  0  0  0  0  0  0  0  0  0
  1  2  2  0  0  0  0
  2  3  1  0  0  0  0
  2  4  1  0  0  0  0
  4  5  1  0  0  0  0
  4  6  1  0  0  0  0
  4  7  1  0  0  0  0
  8  9  1  0  0  0  0
  9 10  1  0  0  0  0
 10 11  1  0  0  0  0
 11 12  1  0  0  0  0
 12 13  1  0  0  0  0
 12 14  1  0  0  0  0
 14 15  1  0  0  0  0
 15 16  1  0  0  0  0
  9 16  1  0  0  0  0
 15 17  1  0  0  0  0
 17 18  2  0  0  0  0
 17 19  1  0  0  0  0
 19 20  1  0  0  0  0
 20 21  1  0  0  0  0
 21 22  1  0  0  0  0
 22 23  2  0  0  0  0
 23 24  1  0  0  0  0
 24 25  1  0  0  0  0
 24 26  2  0  0  0  0
 23 27  1  0  0  0  0
 27 28  2  0  0  0  0
 27 29  1  0  0  0  0
 29 30  1  0  0  0  0
 21 30  1  0  0  0  0
 30 31  2  0  0  0  0
M  END
>  <Catalog ID>
Z4897436600

>  <Plate_ID>
2026983-X50-04

>  <Well>
H10

>  <V, µL>
50

>  <Conc, mM>
10

>  <Formula>
C17H24F3N5O6

>  <MW>
451.3976

>  <Purity>
100

>  <PO>
5A-64168

>  <Salt smiles>
O=C(O)C(F)(F)F

>  <Salt_name>
trifluoroacetic acid

>  <Salt_ratio>
1

>  <MW_salt>
114.0233

>  <Stereochem.data>
Diastereomeric mixture

>  <Geometric.isomer>
Unequal mixture of geometric isomers

>  <Chemical name>
1-[3-(3,6-dimethyl-1,4-diazepan-1-yl)-3-oxopropyl]-2,4-dioxo-1,2,3,4-tetrahydropyrimidine-5-carboxamide; trifluoroacetic acid

>  <ClogP>
-0,903

>  <logS>
-2,745

>  <HBD>
3

>  <HBA>
5

>  <TPSA>
124,84

>  <RotBonds>
5

$$$$

  Mrv1925 04172511352D          

 29 33  0  0  0  0            999 V2000
    5.9366    0.3168    0.0000 O   0  0  0  0  0  0  0  0  0  0  0  0
    5.6011    1.0705    0.0000 C   0  0  0  0  0  0  0  0  0  0  0  0
    4.7941    1.2420    0.0000 C   0  0  0  0  0  0  0  0  0  0  0  0
    4.7079    2.0625    0.0000 C   0  0  0  0  0  0  0  0  0  0  0  0
    5.4615    2.3981    0.0000 C   0  0  0  0  0  0  0  0  0  0  0  0
    6.0136    1.7850    0.0000 N   0  0  0  0  0  0  0  0  0  0  0  0
    3.9934    2.4750    0.0000 C   0  0  0  0  0  0  0  0  0  0  0  0
    3.9934    3.3000    0.0000 C   0  0  0  0  0  0  0  0  0  0  0  0
    3.2789    3.7125    0.0000 C   0  0  0  0  0  0  0  0  0  0  0  0
    2.5645    3.3000    0.0000 C   0  0  0  0  0  0  0  0  0  0  0  0
    2.5645    2.4750    0.0000 C   0  0  0  0  0  0  0  0  0  0  0  0
    3.2789    2.0625    0.0000 N   0  0  0  0  0  0  0  0  0  0  0  0
    3.2789    1.2375    0.0000 C   0  0  0  0  0  0  0  0  0  0  0  0
    3.9934    0.8250    0.0000 N   0  0  0  0  0  0  0  0  0  0  0  0
    3.9934    0.0000    0.0000 C   0  0  0  0  0  0  0  0  0  0  0  0
    3.2789   -0.4125    0.0000 N   0  0  0  0  0  0  0  0  0  0  0  0
    2.5645    0.0000    0.0000 C   0  0  0  0  0  0  0  0  0  0  0  0
    2.5645    0.8250    0.0000 C   0  0  0  0  0  0  0  0  0  0  0  0
    1.7798    1.0799    0.0000 N   0  0  0  0  0  0  0  0  0  0  0  0
    1.2949    0.4125    0.0000 C   0  0  0  0  0  0  0  0  0  0  0  0
    1.7798   -0.2549    0.0000 N   0  0  0  0  0  0  0  0  0  0  0  0
    1.5249   -1.0396    0.0000 C   0  0  0  0  0  0  0  0  0  0  0  0
    2.0769   -1.6527    0.0000 C   0  0  0  0  0  0  0  0  0  0  0  0
    2.8839   -1.4811    0.0000 O   0  0  0  0  0  0  0  0  0  0  0  0
    1.8220   -2.4373    0.0000 C   0  0  0  0  0  0  0  0  0  0  0  0
    1.0374   -2.6922    0.0000 C   0  0  0  0  0  0  0  0  0  0  0  0
    1.0374   -3.5172    0.0000 C   0  0  0  0  0  0  0  0  0  0  0  0
    1.8220   -3.7722    0.0000 C   0  0  0  0  0  0  0  0  0  0  0  0
    2.3069   -3.1047    0.0000 O   0  0  0  0  0  0  0  0  0  0  0  0
  1  2  2  0  0  0  0
  2  3  1  0  0  0  0
  3  4  1  0  0  0  0
  4  5  1  0  0  0  0
  5  6  1  0  0  0  0
  2  6  1  0  0  0  0
  4  7  1  0  0  0  0
  7  8  1  0  0  0  0
  8  9  1  0  0  0  0
  9 10  1  0  0  0  0
 10 11  1  0  0  0  0
 11 12  1  0  0  0  0
  7 12  1  0  0  0  0
 12 13  1  0  0  0  0
 13 14  1  0  0  0  0
 14 15  2  0  0  0  0
 15 16  1  0  0  0  0
 16 17  2  0  0  0  0
 17 18  1  0  0  0  0
 13 18  2  0  0  0  0
 18 19  1  0  0  0  0
 19 20  2  0  0  0  0
 20 21  1  0  0  0  0
 17 21  1  0  0  0  0
 21 22  1  0  0  0  0
 22 23  1  0  0  0  0
 23 24  1  0  0  0  0
 23 25  1  0  0  0  0
 25 26  1  0  0  0  0
 26 27  1  0  0  0  0
 27 28  1  0  0  0  0
 28 29  1  0  0  0  0
 25 29  1  0  0  0  0
M  END
>  <Catalog ID>
Z2760960512

>  <Plate_ID>
2026983-X50-04

>  <Well>
A11

>  <V, µL>
50

>  <Conc, mM>
10

>  <Formula>
C20H28N6O3

>  <MW>
400.4747

>  <Purity>
100

>  <PO>
5A-64168

>  <MW_salt>
0

>  <Stereochem.data>
Diastereomeric mixture

>  <Geometric.isomer>
None

>  <Chemical name>
4-(1-{9-[2-hydroxy-2-(oxolan-2-yl)ethyl]-9H-purin-6-yl}piperidin-2-yl)pyrrolidin-2-one

>  <ClogP>
-1,07

>  <logS>
-2,545

>  <HBD>
2

>  <HBA>
7

>  <TPSA>
105,4

>  <RotBonds>
5

$$$$

  Mrv1925 04172511352D          

 27 30  0  0  1  0            999 V2000
    0.4292    2.5896    0.0000 C   0  0  0  0  0  0  0  0  0  0  0  0
    1.2138    2.8445    0.0000 O   0  0  0  0  0  0  0  0  0  0  0  0
    1.8269    2.2925    0.0000 C   0  0  0  0  0  0  0  0  0  0  0  0
    2.6115    2.5474    0.0000 C   0  0  2  0  0  0  0  0  0  0  0  0
    2.8664    3.3320    0.0000 C   0  0  0  0  0  0  0  0  0  0  0  0
    3.6914    3.3320    0.0000 C   0  0  2  0  0  0  0  0  0  0  0  0
    3.9464    2.5474    0.0000 C   0  0  0  0  0  0  0  0  0  0  0  0
    3.2789    2.0625    0.0000 N   0  0  0  0  0  0  0  0  0  0  0  0
    3.2789    1.2375    0.0000 C   0  0  0  0  0  0  0  0  0  0  0  0
    3.9934    0.8250    0.0000 N   0  0  0  0  0  0  0  0  0  0  0  0
    3.9934    0.0000    0.0000 C   0  0  0  0  0  0  0  0  0  0  0  0
    3.2789   -0.4125    0.0000 N   0  0  0  0  0  0  0  0  0  0  0  0
    2.5645    0.0000    0.0000 C   0  0  0  0  0  0  0  0  0  0  0  0
    2.5645    0.8250    0.0000 C   0  0  0  0  0  0  0  0  0  0  0  0
    1.7798    1.0799    0.0000 N   0  0  0  0  0  0  0  0  0  0  0  0
    1.2949    0.4125    0.0000 C   0  0  0  0  0  0  0  0  0  0  0  0
    1.7798   -0.2549    0.0000 N   0  0  0  0  0  0  0  0  0  0  0  0
    1.5249   -1.0396    0.0000 C   0  0  0  0  0  0  0  0  0  0  0  0
    1.8994   -1.7746    0.0000 C   0  0  0  0  0  0  0  0  0  0  0  0
    1.1644   -2.1492    0.0000 C   0  0  0  0  0  0  0  0  0  0  0  0
    1.5389   -2.8843    0.0000 C   0  0  0  0  0  0  0  0  0  0  0  0
    2.3628   -2.9274    0.0000 O   0  0  0  0  0  0  0  0  0  0  0  0
    0.4293   -2.5237    0.0000 C   0  0  0  0  0  0  0  0  0  0  0  0
   -0.2626   -2.0744    0.0000 O   0  0  0  0  0  0  0  0  0  0  0  0
    0.7898   -1.4141    0.0000 C   0  0  0  0  0  0  0  0  0  0  0  0
    4.1764    3.9995    0.0000 O   0  0  0  0  0  0  0  0  0  0  0  0
    4.9968    3.9132    0.0000 C   0  0  0  0  0  0  0  0  0  0  0  0
  1  2  1  0  0  0  0
  2  3  1  0  0  0  0
  4  3  1  6  0  0  0
  4  5  1  0  0  0  0
  6  5  1  0  0  0  0
  6  7  1  0  0  0  0
  7  8  1  0  0  0  0
  4  8  1  0  0  0  0
  8  9  1  0  0  0  0
  9 10  1  0  0  0  0
 10 11  2  0  0  0  0
 11 12  1  0  0  0  0
 12 13  2  0  0  0  0
 13 14  1  0  0  0  0
  9 14  2  0  0  0  0
 14 15  1  0  0  0  0
 15 16  2  0  0  0  0
 16 17  1  0  0  0  0
 13 17  1  0  0  0  0
 17 18  1  0  0  0  0
 18 19  1  0  0  0  0
 19 20  1  0  0  0  0
 20 21  1  0  0  0  0
 21 22  1  0  0  0  0
 20 23  1  0  0  0  0
 23 24  1  0  0  0  0
 20 25  1  0  0  0  0
 18 25  1  0  0  0  0
  6 26  1  1  0  0  0
 26 27  1  0  0  0  0
M  END
>  <Catalog ID>
Z2760968821

>  <Plate_ID>
2026983-X50-04

>  <Well>
B11

>  <V, µL>
50

>  <Conc, mM>
10

>  <Formula>
C18H27N5O4

>  <MW>
377.4381

>  <Purity>
92.06

>  <PO>
5A-64168

>  <MW_salt>
0

>  <Stereochem.data>
Single known enantiomer

>  <Geometric.isomer>
None

>  <Chemical name>
[1-(hydroxymethyl)-3-{6-[(2S,4R)-4-methoxy-2-(methoxymethyl)pyrrolidin-1-yl]-9H-purin-9-yl}cyclobutyl]methanol

>  <ClogP>
-1,302

>  <logS>
-1,563

>  <HBD>
2

>  <HBA>
8

>  <TPSA>
105,76

>  <RotBonds>
7

$$$$

  Mrv1925 04172511352D          

 28 31  0  0  0  0            999 V2000
    0.4210    2.0625    0.0000 C   0  0  0  0  0  0  0  0  0  0  0  0
    1.1355    2.4750    0.0000 C   0  0  0  0  0  0  0  0  0  0  0  0
    1.1355    3.3000    0.0000 C   0  0  0  0  0  0  0  0  0  0  0  0
    1.8500    2.0625    0.0000 C   0  0  0  0  0  0  0  0  0  0  0  0
    2.5645    2.4750    0.0000 C   0  0  0  0  0  0  0  0  0  0  0  0
    2.5645    3.3000    0.0000 C   0  0  0  0  0  0  0  0  0  0  0  0
    1.8500    3.7125    0.0000 O   0  0  0  0  0  0  0  0  0  0  0  0
    3.2789    3.7125    0.0000 N   0  0  0  0  0  0  0  0  0  0  0  0
    3.9934    3.3000    0.0000 C   0  0  0  0  0  0  0  0  0  0  0  0
    3.9934    2.4750    0.0000 C   0  0  0  0  0  0  0  0  0  0  0  0
    3.2789    2.0625    0.0000 N   0  0  0  0  0  0  0  0  0  0  0  0
    3.2789    1.2375    0.0000 C   0  0  0  0  0  0  0  0  0  0  0  0
    3.9934    0.8250    0.0000 N   0  0  0  0  0  0  0  0  0  0  0  0
    3.9934    0.0000    0.0000 C   0  0  0  0  0  0  0  0  0  0  0  0
    3.2789   -0.4125    0.0000 N   0  0  0  0  0  0  0  0  0  0  0  0
    2.5645    0.0000    0.0000 C   0  0  0  0  0  0  0  0  0  0  0  0
    2.5645    0.8250    0.0000 C   0  0  0  0  0  0  0  0  0  0  0  0
    1.7798    1.0799    0.0000 N   0  0  0  0  0  0  0  0  0  0  0  0
    1.2949    0.4125    0.0000 C   0  0  0  0  0  0  0  0  0  0  0  0
    1.7798   -0.2549    0.0000 N   0  0  0  0  0  0  0  0  0  0  0  0
    1.5249   -1.0396    0.0000 C   0  0  0  0  0  0  0  0  0  0  0  0
    2.0769   -1.6527    0.0000 C   0  0  0  0  0  0  0  0  0  0  0  0
    1.4095   -2.1376    0.0000 O   0  0  0  0  0  0  0  0  0  0  0  0
    2.6290   -1.0396    0.0000 C   0  0  0  0  0  0  0  0  0  0  0  0
    3.3826   -1.3751    0.0000 C   0  0  0  0  0  0  0  0  0  0  0  0
    3.2964   -2.1956    0.0000 O   0  0  0  0  0  0  0  0  0  0  0  0
    2.4894   -2.3671    0.0000 C   0  0  0  0  0  0  0  0  0  0  0  0
    2.1539   -3.1208    0.0000 C   0  0  0  0  0  0  0  0  0  0  0  0
  1  2  1  0  0  0  0
  2  3  1  0  0  0  0
  2  4  1  0  0  0  0
  4  5  1  0  0  0  0
  5  6  1  0  0  0  0
  6  7  2  0  0  0  0
  6  8  1  0  0  0  0
  8  9  1  0  0  0  0
  9 10  1  0  0  0  0
 10 11  1  0  0  0  0
  5 11  1  0  0  0  0
 11 12  1  0  0  0  0
 12 13  1  0  0  0  0
 13 14  2  0  0  0  0
 14 15  1  0  0  0  0
 15 16  2  0  0  0  0
 16 17  1  0  0  0  0
 12 17  2  0  0  0  0
 17 18  1  0  0  0  0
 18 19  2  0  0  0  0
 19 20  1  0  0  0  0
 16 20  1  0  0  0  0
 20 21  1  0  0  0  0
 21 22  1  0  0  0  0
 22 23  1  0  0  0  0
 22 24  1  0  0  0  0
 24 25  1  0  0  0  0
 25 26  1  0  0  0  0
 26 27  1  0  0  0  0
 22 27  1  0  0  0  0
 27 28  1  0  0  0  0
M  END
>  <Catalog ID>
Z2760963610

>  <Plate_ID>
2026983-X50-04

>  <Well>
C11

>  <V, µL>
50

>  <Conc, mM>
10

>  <Formula>
C19H28N6O3

>  <MW>
388.464

>  <Purity>
93.9

>  <PO>
5A-64168

>  <MW_salt>
0

>  <Stereochem.data>
Diastereomeric mixture

>  <Geometric.isomer>
None

>  <Chemical name>
4-{9-[(3-hydroxy-2-methyloxolan-3-yl)methyl]-9H-purin-6-yl}-3-(2-methylpropyl)piperazin-2-one

>  <ClogP>
0,999

>  <logS>
-4,107

>  <HBD>
2

>  <HBA>
7

>  <TPSA>
105,4

>  <RotBonds>
5

$$$$

  Mrv1925 04172511352D          

 18 19  0  0  0  0            999 V2000
    0.0000   -1.6500    0.0000 C   0  0  0  0  0  0  0  0  0  0  0  0
    0.0000   -2.4750    0.0000 N   0  0  0  0  0  0  0  0  0  0  0  0
    0.7145   -2.8875    0.0000 C   0  0  0  0  0  0  0  0  0  0  0  0
    0.7145   -3.7125    0.0000 C   0  0  0  0  0  0  0  0  0  0  0  0
    1.4289   -4.1250    0.0000 C   0  0  0  0  0  0  0  0  0  0  0  0
    1.4289   -4.9500    0.0000 N   0  0  0  0  0  0  0  0  0  0  0  0
    2.1434   -5.3625    0.0000 C   0  0  0  0  0  0  0  0  0  0  0  0
    2.8579   -4.9500    0.0000 C   0  0  0  0  0  0  0  0  0  0  0  0
    3.5724   -5.3625    0.0000 C   0  0  0  0  0  0  0  0  0  0  0  0
    3.5724   -6.1875    0.0000 C   0  0  0  0  0  0  0  0  0  0  0  0
    2.8579   -6.6000    0.0000 C   0  0  0  0  0  0  0  0  0  0  0  0
    2.1434   -6.1875    0.0000 C   0  0  0  0  0  0  0  0  0  0  0  0
    0.0000   -4.1250    0.0000 C   0  0  0  0  0  0  0  0  0  0  0  0
    0.0000   -4.9500    0.0000 O   0  0  0  0  0  0  0  0  0  0  0  0
   -0.7145   -3.7125    0.0000 N   0  0  0  0  0  0  0  0  0  0  0  0
   -1.4289   -4.1250    0.0000 C   0  0  0  0  0  0  0  0  0  0  0  0
   -0.7145   -2.8875    0.0000 C   0  0  0  0  0  0  0  0  0  0  0  0
   -1.4289   -2.4750    0.0000 O   0  0  0  0  0  0  0  0  0  0  0  0
  1  2  1  0  0  0  0
  2  3  1  0  0  0  0
  3  4  2  0  0  0  0
  4  5  1  0  0  0  0
  5  6  1  0  0  0  0
  6  7  1  0  0  0  0
  7  8  1  0  0  0  0
  8  9  2  0  0  0  0
  9 10  1  0  0  0  0
 10 11  2  0  0  0  0
 11 12  1  0  0  0  0
  7 12  2  0  0  0  0
  4 13  1  0  0  0  0
 13 14  2  0  0  0  0
 13 15  1  0  0  0  0
 15 16  1  0  0  0  0
 15 17  1  0  0  0  0
  2 17  1  0  0  0  0
 17 18  2  0  0  0  0
M  END
>  <Catalog ID>
Z335458190

>  <Plate_ID>
2026983-X50-04

>  <Well>
D11

>  <V, µL>
50

>  <Conc, mM>
10

>  <Formula>
C13H15N3O2

>  <MW>
245.2771

>  <Purity>
91

>  <PO>
5A-64168

>  <MW_salt>
0

>  <Stereochem.data>
Achiral

>  <Geometric.isomer>
None

>  <Chemical name>
1,3-dimethyl-5-[(phenylamino)methyl]-1,2,3,4-tetrahydropyrimidine-2,4-dione

>  <ClogP>
0,403

>  <logS>
-1,454

>  <HBD>
1

>  <HBA>
3

>  <TPSA>
52,65

>  <RotBonds>
3

$$$$

  Mrv1925 04172511352D          

 27 30  0  0  0  0            999 V2000
    3.2789    5.7042    0.0000 C   0  0  0  0  0  0  0  0  0  0  0  0
    3.9934    5.2917    0.0000 C   0  0  0  0  0  0  0  0  0  0  0  0
    4.7079    5.7042    0.0000 O   0  0  0  0  0  0  0  0  0  0  0  0
    3.9934    4.4667    0.0000 N   0  0  0  0  0  0  0  0  0  0  0  0
    4.5768    3.8834    0.0000 C   0  0  0  0  0  0  0  0  0  0  0  0
    3.9934    3.3000    0.0000 C   0  0  0  0  0  0  0  0  0  0  0  0
    3.4100    3.8834    0.0000 C   0  0  0  0  0  0  0  0  0  0  0  0
    3.9934    2.4750    0.0000 C   0  0  0  0  0  0  0  0  0  0  0  0
    4.7079    2.0625    0.0000 O   0  0  0  0  0  0  0  0  0  0  0  0
    3.2789    2.0625    0.0000 N   0  0  0  0  0  0  0  0  0  0  0  0
    3.2789    1.2375    0.0000 C   0  0  0  0  0  0  0  0  0  0  0  0
    3.9934    0.8250    0.0000 N   0  0  0  0  0  0  0  0  0  0  0  0
    3.9934    0.0000    0.0000 C   0  0  0  0  0  0  0  0  0  0  0  0
    3.2789   -0.4125    0.0000 N   0  0  0  0  0  0  0  0  0  0  0  0
    2.5645    0.0000    0.0000 C   0  0  0  0  0  0  0  0  0  0  0  0
    2.5645    0.8250    0.0000 C   0  0  0  0  0  0  0  0  0  0  0  0
    1.7798    1.0799    0.0000 C   0  0  0  0  0  0  0  0  0  0  0  0
    1.5249    1.8646    0.0000 C   0  0  0  0  0  0  0  0  0  0  0  0
    1.2949    0.4125    0.0000 C   0  0  0  0  0  0  0  0  0  0  0  0
    0.4699    0.4125    0.0000 C   0  0  0  0  0  0  0  0  0  0  0  0
    1.7798   -0.2549    0.0000 N   0  0  0  0  0  0  0  0  0  0  0  0
    1.5249   -1.0396    0.0000 C   0  0  0  0  0  0  0  0  0  0  0  0
    0.7179   -1.2111    0.0000 C   0  0  0  0  0  0  0  0  0  0  0  0
    0.3824   -1.9648    0.0000 C   0  0  0  0  0  0  0  0  0  0  0  0
   -0.4381   -1.8785    0.0000 C   0  0  0  0  0  0  0  0  0  0  0  0
   -0.6096   -1.0716    0.0000 C   0  0  0  0  0  0  0  0  0  0  0  0
    0.1048   -0.6591    0.0000 O   0  0  0  0  0  0  0  0  0  0  0  0
  1  2  1  0  0  0  0
  2  3  2  0  0  0  0
  2  4  1  0  0  0  0
  4  5  1  0  0  0  0
  5  6  1  0  0  0  0
  6  7  1  0  0  0  0
  4  7  1  0  0  0  0
  6  8  1  0  0  0  0
  8  9  2  0  0  0  0
  8 10  1  0  0  0  0
 10 11  1  0  0  0  0
 11 12  2  0  0  0  0
 12 13  1  0  0  0  0
 13 14  2  0  0  0  0
 14 15  1  0  0  0  0
 15 16  2  0  0  0  0
 11 16  1  0  0  0  0
 16 17  1  0  0  0  0
 17 18  1  0  0  0  0
 17 19  2  0  0  0  0
 19 20  1  0  0  0  0
 19 21  1  0  0  0  0
 15 21  1  0  0  0  0
 21 22  1  0  0  0  0
 22 23  1  0  0  0  0
 23 24  1  0  0  0  0
 24 25  1  0  0  0  0
 25 26  1  0  0  0  0
 26 27  1  0  0  0  0
 23 27  1  0  0  0  0
M  END
>  <Catalog ID>
Z1824109492

>  <Plate_ID>
2026983-X50-04

>  <Well>
E11

>  <V, µL>
50

>  <Conc, mM>
10

>  <Formula>
C19H25N5O3

>  <MW>
371.4335

>  <Purity>
95.42

>  <PO>
5A-64168

>  <MW_salt>
0

>  <Stereochem.data>
Racemic or presumed racemic or meso

>  <Geometric.isomer>
None

>  <Chemical name>
1-acetyl-N-{5,6-dimethyl-7-[(oxolan-2-yl)methyl]-7H-pyrrolo[2,3-d]pyrimidin-4-yl}azetidine-3-carboxamide

>  <ClogP>
1,584

>  <logS>
-3,55

>  <HBD>
1

>  <HBA>
5

>  <TPSA>
89,35

>  <RotBonds>
4

$$$$

  Mrv1925 04172511352D          

 28 31  0  0  1  0            999 V2000
    1.8500    2.0625    0.0000 C   0  0  0  0  0  0  0  0  0  0  0  0
    2.5645    2.4750    0.0000 C   0  0  0  0  0  0  0  0  0  0  0  0
    3.2789    2.0625    0.0000 N   0  0  0  0  0  0  0  0  0  0  0  0
    3.2789    1.2375    0.0000 C   0  0  0  0  0  0  0  0  0  0  0  0
    3.9934    0.8250    0.0000 N   0  0  0  0  0  0  0  0  0  0  0  0
    3.9934    0.0000    0.0000 C   0  0  0  0  0  0  0  0  0  0  0  0
    3.2789   -0.4125    0.0000 N   0  0  0  0  0  0  0  0  0  0  0  0
    2.5645    0.0000    0.0000 C   0  0  0  0  0  0  0  0  0  0  0  0
    2.5645    0.8250    0.0000 C   0  0  0  0  0  0  0  0  0  0  0  0
    1.7798    1.0799    0.0000 N   0  0  0  0  0  0  0  0  0  0  0  0
    1.2949    0.4125    0.0000 C   0  0  0  0  0  0  0  0  0  0  0  0
    1.7798   -0.2549    0.0000 N   0  0  0  0  0  0  0  0  0  0  0  0
    1.5249   -1.0396    0.0000 C   0  0  2  0  0  0  0  0  0  0  0  0
    2.0098   -1.7070    0.0000 O   0  0  0  0  0  0  0  0  0  0  0  0
    1.5249   -2.3744    0.0000 C   0  0  2  0  0  0  0  0  0  0  0  0
    1.7798   -3.1591    0.0000 C   0  0  0  0  0  0  0  0  0  0  0  0
    1.2278   -3.7722    0.0000 O   0  0  0  0  0  0  0  0  0  0  0  0
    0.7403   -2.1195    0.0000 C   0  0  1  0  0  0  0  0  0  0  0  0
    0.0728   -2.6044    0.0000 O   0  0  0  0  0  0  0  0  0  0  0  0
    0.7403   -1.2945    0.0000 C   0  0  1  0  0  0  0  0  0  0  0  0
    0.0728   -0.8096    0.0000 O   0  0  0  0  0  0  0  0  0  0  0  0
    2.5645    3.3000    0.0000 C   0  0  0  0  0  0  0  0  0  0  0  0
    1.8500    3.7125    0.0000 C   0  0  0  0  0  0  0  0  0  0  0  0
    1.8500    4.5375    0.0000 C   0  0  0  0  0  0  0  0  0  0  0  0
    2.5645    4.9500    0.0000 C   0  0  0  0  0  0  0  0  0  0  0  0
    3.2789    4.5375    0.0000 C   0  0  0  0  0  0  0  0  0  0  0  0
    3.2789    3.7125    0.0000 C   0  0  0  0  0  0  0  0  0  0  0  0
    3.9934    3.3000    0.0000 Cl  0  0  0  0  0  0  0  0  0  0  0  0
  1  2  1  0  0  0  0
  2  3  1  0  0  0  0
  3  4  1  0  0  0  0
  4  5  1  0  0  0  0
  5  6  2  0  0  0  0
  6  7  1  0  0  0  0
  7  8  2  0  0  0  0
  8  9  1  0  0  0  0
  4  9  2  0  0  0  0
  9 10  1  0  0  0  0
 10 11  2  0  0  0  0
 11 12  1  0  0  0  0
  8 12  1  0  0  0  0
 13 12  1  6  0  0  0
 13 14  1  0  0  0  0
 15 14  1  0  0  0  0
 15 16  1  6  0  0  0
 16 17  1  0  0  0  0
 18 15  1  0  0  0  0
 18 19  1  1  0  0  0
 18 20  1  0  0  0  0
 20 13  1  0  0  0  0
 20 21  1  1  0  0  0
  2 22  1  0  0  0  0
 22 23  1  0  0  0  0
 23 24  2  0  0  0  0
 24 25  1  0  0  0  0
 25 26  2  0  0  0  0
 26 27  1  0  0  0  0
 22 27  2  0  0  0  0
 27 28  1  0  0  0  0
M  END
>  <Catalog ID>
Z1980908378

>  <Plate_ID>
2026983-X50-04

>  <Well>
F11

>  <V, µL>
50

>  <Conc, mM>
10

>  <Formula>
C18H20ClN5O4

>  <MW>
405.8355

>  <Purity>
100

>  <PO>
5A-64168

>  <MW_salt>
0

>  <Stereochem.data>
Diastereomeric mixture

>  <Geometric.isomer>
None

>  <Chemical name>
(2R,3R,4S,5R)-2-(6-{[1-(2-chlorophenyl)ethyl]amino}-9H-purin-9-yl)-5-(hydroxymethyl)oxolane-3,4-diol

>  <ClogP>
1,143

>  <logS>
-4,083

>  <HBD>
4

>  <HBA>
8

>  <TPSA>
125,55

>  <RotBonds>
5

$$$$

  Mrv1925 04172511352D          

 25 28  0  0  0  0            999 V2000
    5.4561    3.3855    0.0000 N   0  0  0  0  0  0  0  0  0  0  0  0
    4.6592    3.5991    0.0000 C   0  0  0  0  0  0  0  0  0  0  0  0
    3.8623    3.8126    0.0000 C   0  0  0  0  0  0  0  0  0  0  0  0
    3.2789    3.2292    0.0000 C   0  0  0  0  0  0  0  0  0  0  0  0
    2.6956    3.8126    0.0000 O   0  0  0  0  0  0  0  0  0  0  0  0
    3.8623    2.6459    0.0000 C   0  0  0  0  0  0  0  0  0  0  0  0
    3.2789    2.0625    0.0000 N   0  0  0  0  0  0  0  0  0  0  0  0
    2.6956    2.6459    0.0000 C   0  0  0  0  0  0  0  0  0  0  0  0
    3.2789    1.2375    0.0000 C   0  0  0  0  0  0  0  0  0  0  0  0
    3.9934    0.8250    0.0000 N   0  0  0  0  0  0  0  0  0  0  0  0
    3.9934    0.0000    0.0000 C   0  0  0  0  0  0  0  0  0  0  0  0
    3.2789   -0.4125    0.0000 N   0  0  0  0  0  0  0  0  0  0  0  0
    2.5645    0.0000    0.0000 C   0  0  0  0  0  0  0  0  0  0  0  0
    2.5645    0.8250    0.0000 C   0  0  0  0  0  0  0  0  0  0  0  0
    1.7798    1.0799    0.0000 N   0  0  0  0  0  0  0  0  0  0  0  0
    1.2949    0.4125    0.0000 C   0  0  0  0  0  0  0  0  0  0  0  0
    1.7798   -0.2549    0.0000 N   0  0  0  0  0  0  0  0  0  0  0  0
    1.5249   -1.0396    0.0000 C   0  0  0  0  0  0  0  0  0  0  0  0
    2.0769   -1.6527    0.0000 C   0  0  0  0  0  0  0  0  0  0  0  0
    2.8839   -1.4811    0.0000 O   0  0  0  0  0  0  0  0  0  0  0  0
    1.8220   -2.4373    0.0000 C   0  0  0  0  0  0  0  0  0  0  0  0
    2.3069   -3.1047    0.0000 C   0  0  0  0  0  0  0  0  0  0  0  0
    1.8220   -3.7722    0.0000 C   0  0  0  0  0  0  0  0  0  0  0  0
    1.0374   -3.5172    0.0000 C   0  0  0  0  0  0  0  0  0  0  0  0
    1.0374   -2.6922    0.0000 O   0  0  0  0  0  0  0  0  0  0  0  0
  1  2  3  0  0  0  0
  2  3  1  0  0  0  0
  3  4  1  0  0  0  0
  4  5  1  0  0  0  0
  4  6  1  0  0  0  0
  6  7  1  0  0  0  0
  7  8  1  0  0  0  0
  4  8  1  0  0  0  0
  7  9  1  0  0  0  0
  9 10  1  0  0  0  0
 10 11  2  0  0  0  0
 11 12  1  0  0  0  0
 12 13  2  0  0  0  0
 13 14  1  0  0  0  0
  9 14  2  0  0  0  0
 14 15  1  0  0  0  0
 15 16  2  0  0  0  0
 16 17  1  0  0  0  0
 13 17  1  0  0  0  0
 17 18  1  0  0  0  0
 18 19  1  0  0  0  0
 19 20  1  0  0  0  0
 19 21  1  0  0  0  0
 21 22  1  0  0  0  0
 22 23  1  0  0  0  0
 23 24  1  0  0  0  0
 24 25  1  0  0  0  0
 21 25  1  0  0  0  0
M  END
>  <Catalog ID>
Z2760963488

>  <Plate_ID>
2026983-X50-04

>  <Well>
G11

>  <V, µL>
50

>  <Conc, mM>
10

>  <Formula>
C16H20N6O3

>  <MW>
344.3684

>  <Purity>
100

>  <PO>
5A-64168

>  <MW_salt>
0

>  <Stereochem.data>
Diastereomeric mixture

>  <Geometric.isomer>
None

>  <Chemical name>
2-(3-hydroxy-1-{9-[2-hydroxy-2-(oxolan-2-yl)ethyl]-9H-purin-6-yl}azetidin-3-yl)acetonitrile

>  <ClogP>
-1,33

>  <logS>
-2,252

>  <HBD>
2

>  <HBA>
8

>  <TPSA>
120,32

>  <RotBonds>
5

$$$$

  Mrv1925 04172511352D          

 26 28  0  0  0  0            999 V2000
    0.7145   -1.2375    0.0000 C   0  0  0  0  0  0  0  0  0  0  0  0
    0.7145   -2.0625    0.0000 C   0  0  0  0  0  0  0  0  0  0  0  0
    0.0000   -2.4750    0.0000 C   0  0  0  0  0  0  0  0  0  0  0  0
   -0.7145   -2.0625    0.0000 S   0  0  0  0  0  0  0  0  0  0  0  0
   -1.4289   -2.4750    0.0000 C   0  0  0  0  0  0  0  0  0  0  0  0
   -0.7145   -1.2375    0.0000 O   0  0  0  0  0  0  0  0  0  0  0  0
    1.4289   -2.4750    0.0000 N   0  0  0  0  0  0  0  0  0  0  0  0
    1.4289   -3.3000    0.0000 C   0  0  0  0  0  0  0  0  0  0  0  0
    2.1434   -2.0625    0.0000 C   0  0  0  0  0  0  0  0  0  0  0  0
    2.1434   -1.2375    0.0000 N   0  0  0  0  0  0  0  0  0  0  0  0
    2.8579   -0.8250    0.0000 C   0  0  0  0  0  0  0  0  0  0  0  0
    3.5724   -1.2375    0.0000 N   0  0  0  0  0  0  0  0  0  0  0  0
    3.5724   -2.0625    0.0000 C   0  0  0  0  0  0  0  0  0  0  0  0
    2.8579   -2.4750    0.0000 C   0  0  0  0  0  0  0  0  0  0  0  0
    3.0294   -3.2820    0.0000 N   0  0  0  0  0  0  0  0  0  0  0  0
    3.8499   -3.3682    0.0000 C   0  0  0  0  0  0  0  0  0  0  0  0
    4.1854   -2.6145    0.0000 N   0  0  0  0  0  0  0  0  0  0  0  0
    4.9924   -2.4430    0.0000 C   0  0  0  0  0  0  0  0  0  0  0  0
    5.5445   -3.0561    0.0000 C   0  0  0  0  0  0  0  0  0  0  0  0
    4.8448   -3.4933    0.0000 C   0  0  0  0  0  0  0  0  0  0  0  0
    4.8736   -4.3178    0.0000 O   0  0  0  0  0  0  0  0  0  0  0  0
    6.0524   -2.4060    0.0000 C   0  0  0  0  0  0  0  0  0  0  0  0
    6.8693   -2.5208    0.0000 C   0  0  0  0  0  0  0  0  0  0  0  0
    7.1784   -3.2857    0.0000 O   0  0  0  0  0  0  0  0  0  0  0  0
    6.6705   -3.9358    0.0000 C   0  0  0  0  0  0  0  0  0  0  0  0
    5.8535   -3.8210    0.0000 C   0  0  0  0  0  0  0  0  0  0  0  0
  1  2  1  0  0  0  0
  2  3  1  0  0  0  0
  3  4  1  0  0  0  0
  4  5  1  0  0  0  0
  4  6  2  0  0  0  0
  2  7  1  0  0  0  0
  7  8  1  0  0  0  0
  7  9  1  0  0  0  0
  9 10  1  0  0  0  0
 10 11  2  0  0  0  0
 11 12  1  0  0  0  0
 12 13  2  0  0  0  0
 13 14  1  0  0  0  0
  9 14  2  0  0  0  0
 14 15  1  0  0  0  0
 15 16  2  0  0  0  0
 16 17  1  0  0  0  0
 13 17  1  0  0  0  0
 17 18  1  0  0  0  0
 18 19  1  0  0  0  0
 19 20  1  0  0  0  0
 20 21  1  0  0  0  0
 19 22  1  0  0  0  0
 22 23  1  0  0  0  0
 23 24  1  0  0  0  0
 24 25  1  0  0  0  0
 25 26  1  0  0  0  0
 19 26  1  0  0  0  0
M  END
>  <Catalog ID>
Z2760958535

>  <Plate_ID>
2026983-X50-04

>  <Well>
H11

>  <V, µL>
50

>  <Conc, mM>
10

>  <Formula>
C17H27N5O3S

>  <MW>
381.493

>  <Purity>
97.6

>  <PO>
5A-64168

>  <MW_salt>
0

>  <Stereochem.data>
Diastereomeric mixture

>  <Geometric.isomer>
None

>  <Chemical name>
[4-({6-[(1-methanesulfinylpropan-2-yl)(methyl)amino]-9H-purin-9-yl}methyl)oxan-4-yl]methanol

>  <ClogP>
-1,014

>  <logS>
-1,305

>  <HBD>
1

>  <HBA>
7

>  <TPSA>
93,37

>  <RotBonds>
7

$$$$
