
  Mrv1925 04172511382D          

 13 14  0  0  0  0            999 V2000
    0.0000    0.0000    0.0000 O   0  0  0  0  0  0  0  0  0  0  0  0
    0.7145   -0.4125    0.0000 C   0  0  0  0  0  0  0  0  0  0  0  0
    0.7145   -1.2375    0.0000 C   0  0  0  0  0  0  0  0  0  0  0  0
    1.3819   -1.7224    0.0000 C   0  0  0  0  0  0  0  0  0  0  0  0
    1.1270   -2.5070    0.0000 C   0  0  0  0  0  0  0  0  0  0  0  0
    0.3020   -2.5070    0.0000 O   0  0  0  0  0  0  0  0  0  0  0  0
    0.0470   -1.7224    0.0000 N   0  0  0  0  0  0  0  0  0  0  0  0
    1.6119   -3.1745    0.0000 C   0  0  0  0  0  0  0  0  0  0  0  0
    2.4324   -3.0882    0.0000 C   0  0  0  0  0  0  0  0  0  0  0  0
    2.9173   -3.7557    0.0000 C   0  0  0  0  0  0  0  0  0  0  0  0
    2.5817   -4.5094    0.0000 C   0  0  0  0  0  0  0  0  0  0  0  0
    1.7613   -4.5956    0.0000 C   0  0  0  0  0  0  0  0  0  0  0  0
    1.2763   -3.9282    0.0000 C   0  0  0  0  0  0  0  0  0  0  0  0
  1  2  1  0  0  0  0
  2  3  1  0  0  0  0
  3  4  1  0  0  0  0
  4  5  2  0  0  0  0
  5  6  1  0  0  0  0
  6  7  1  0  0  0  0
  3  7  2  0  0  0  0
  5  8  1  0  0  0  0
  8  9  1  0  0  0  0
  9 10  2  0  0  0  0
 10 11  1  0  0  0  0
 11 12  2  0  0  0  0
 12 13  1  0  0  0  0
  8 13  2  0  0  0  0
M  END
>  <Catalog ID>
Z431953146

>  <Plate_ID>
2026997-X50-01

>  <Well>
A02

>  <V, µL>
50

>  <Conc, mM>
10

>  <Formula>
C10H9NO2

>  <MW>
175.184

>  <Purity>
100

>  <PO>
5A-64168

>  <MW_salt>
0

>  <Stereochem.data>
Achiral

>  <Geometric.isomer>
None

>  <Chemical name>
(5-phenyl-1,2-oxazol-3-yl)methanol

>  <ClogP>
1,181

>  <logS>
-1,93

>  <HBD>
1

>  <HBA>
2

>  <TPSA>
46,26

>  <RotBonds>
2

$$$$

  Mrv1925 04172511382D          

 13 14  0  0  0  0            999 V2000
    4.7812    2.7604    0.0000 N   0  0  0  0  0  0  0  0  0  0  0  0
    4.0668    2.3479    0.0000 S   0  0  0  0  0  0  0  0  0  0  0  0
    3.6543    3.0624    0.0000 O   0  0  0  0  0  0  0  0  0  0  0  0
    4.4793    1.6335    0.0000 O   0  0  0  0  0  0  0  0  0  0  0  0
    3.3523    1.9354    0.0000 C   0  0  0  0  0  0  0  0  0  0  0  0
    3.3523    1.1104    0.0000 C   0  0  0  0  0  0  0  0  0  0  0  0
    2.6378    0.6979    0.0000 C   0  0  0  0  0  0  0  0  0  0  0  0
    1.9233    1.1104    0.0000 C   0  0  0  0  0  0  0  0  0  0  0  0
    1.1387    0.8555    0.0000 C   0  0  0  0  0  0  0  0  0  0  0  0
    0.6538    1.5229    0.0000 C   0  0  0  0  0  0  0  0  0  0  0  0
    1.1387    2.1904    0.0000 C   0  0  0  0  0  0  0  0  0  0  0  0
    1.9233    1.9354    0.0000 C   0  0  0  0  0  0  0  0  0  0  0  0
    2.6378    2.3479    0.0000 C   0  0  0  0  0  0  0  0  0  0  0  0
  1  2  1  0  0  0  0
  2  3  2  0  0  0  0
  2  4  2  0  0  0  0
  2  5  1  0  0  0  0
  5  6  1  0  0  0  0
  6  7  2  0  0  0  0
  7  8  1  0  0  0  0
  8  9  1  0  0  0  0
  9 10  1  0  0  0  0
 10 11  1  0  0  0  0
 11 12  1  0  0  0  0
  8 12  2  0  0  0  0
 12 13  1  0  0  0  0
  5 13  2  0  0  0  0
M  END
>  <Catalog ID>
Z45415660

>  <Plate_ID>
2026997-X50-01

>  <Well>
B02

>  <V, µL>
50

>  <Conc, mM>
10

>  <Formula>
C9H11NO2S

>  <MW>
197.2541

>  <Purity>
100

>  <PO>
5A-64168

>  <MW_salt>
0

>  <Stereochem.data>
Achiral

>  <Geometric.isomer>
None

>  <Chemical name>
2,3-dihydro-1H-indene-5-sulfonamide

>  <ClogP>
1,318

>  <logS>
-2,75

>  <HBD>
1

>  <HBA>
2

>  <TPSA>
60,16

>  <RotBonds>
1

$$$$

  Mrv1925 04172511382D          

 12 12  0  0  0  0            999 V2000
    0.0000    3.3000    0.0000 C   0  0  0  0  0  0  0  0  0  0  0  0
    0.0000    2.4750    0.0000 O   0  0  0  0  0  0  0  0  0  0  0  0
    0.7145    2.0625    0.0000 C   0  0  0  0  0  0  0  0  0  0  0  0
    1.4289    2.4750    0.0000 O   0  0  0  0  0  0  0  0  0  0  0  0
    0.7145    1.2375    0.0000 C   0  0  0  0  0  0  0  0  0  0  0  0
    1.4289    0.8250    0.0000 C   0  0  0  0  0  0  0  0  0  0  0  0
    1.4289   -0.0000    0.0000 C   0  0  0  0  0  0  0  0  0  0  0  0
    0.7145   -0.4125    0.0000 C   0  0  0  0  0  0  0  0  0  0  0  0
    0.7145   -1.2375    0.0000 Cl  0  0  0  0  0  0  0  0  0  0  0  0
    0.0000    0.0000    0.0000 C   0  0  0  0  0  0  0  0  0  0  0  0
    0.0000    0.8250    0.0000 C   0  0  0  0  0  0  0  0  0  0  0  0
   -0.7145    1.2375    0.0000 N   0  0  0  0  0  0  0  0  0  0  0  0
  1  2  1  0  0  0  0
  2  3  1  0  0  0  0
  3  4  2  0  0  0  0
  3  5  1  0  0  0  0
  5  6  1  0  0  0  0
  6  7  2  0  0  0  0
  7  8  1  0  0  0  0
  8  9  1  0  0  0  0
  8 10  2  0  0  0  0
 10 11  1  0  0  0  0
  5 11  2  0  0  0  0
 11 12  1  0  0  0  0
M  END
>  <Catalog ID>
Z53833897

>  <Plate_ID>
2026997-X50-01

>  <Well>
C02

>  <V, µL>
50

>  <Conc, mM>
10

>  <Formula>
C8H8ClNO2

>  <MW>
185.6076

>  <Purity>
95

>  <PO>
5A-64168

>  <MW_salt>
0

>  <Stereochem.data>
Achiral

>  <Geometric.isomer>
None

>  <Chemical name>
methyl 2-amino-4-chlorobenzoate

>  <ClogP>
2,935

>  <logS>
-2,29

>  <HBD>
1

>  <HBA>
2

>  <TPSA>
52,32

>  <RotBonds>
2

$$$$

  Mrv1925 04172511382D          

 12 13  0  0  0  0            999 V2000
    2.5645    2.4750    0.0000 O   0  0  0  0  0  0  0  0  0  0  0  0
    3.2789    2.0625    0.0000 C   0  0  0  0  0  0  0  0  0  0  0  0
    3.9934    2.4750    0.0000 O   0  0  0  0  0  0  0  0  0  0  0  0
    3.2789    1.2375    0.0000 C   0  0  0  0  0  0  0  0  0  0  0  0
    3.9934    0.8250    0.0000 C   0  0  0  0  0  0  0  0  0  0  0  0
    3.9934    0.0000    0.0000 C   0  0  0  0  0  0  0  0  0  0  0  0
    3.2789   -0.4125    0.0000 C   0  0  0  0  0  0  0  0  0  0  0  0
    2.5645    0.0000    0.0000 C   0  0  0  0  0  0  0  0  0  0  0  0
    1.7798   -0.2549    0.0000 O   0  0  0  0  0  0  0  0  0  0  0  0
    1.2949    0.4125    0.0000 C   0  0  0  0  0  0  0  0  0  0  0  0
    1.7798    1.0799    0.0000 O   0  0  0  0  0  0  0  0  0  0  0  0
    2.5645    0.8250    0.0000 C   0  0  0  0  0  0  0  0  0  0  0  0
  1  2  2  0  0  0  0
  2  3  1  0  0  0  0
  2  4  1  0  0  0  0
  4  5  1  0  0  0  0
  5  6  2  0  0  0  0
  6  7  1  0  0  0  0
  7  8  2  0  0  0  0
  8  9  1  0  0  0  0
  9 10  1  0  0  0  0
 10 11  1  0  0  0  0
 11 12  1  0  0  0  0
  4 12  2  0  0  0  0
  8 12  1  0  0  0  0
M  END
>  <Catalog ID>
Z553832512

>  <Plate_ID>
2026997-X50-01

>  <Well>
D02

>  <V, µL>
50

>  <Conc, mM>
10

>  <Formula>
C8H6O4

>  <MW>
166.1308

>  <Purity>
100

>  <PO>
5A-64168

>  <MW_salt>
0

>  <Stereochem.data>
Achiral

>  <Geometric.isomer>
None

>  <Chemical name>
1,3-dioxaindane-4-carboxylic acid

>  <ClogP>
1,972

>  <logS>
-2,12

>  <HBD>
1

>  <HBA>
4

>  <TPSA>
55,76

>  <RotBonds>
1

$$$$

  Mrv1925 04172511382D          

 12 13  0  0  0  0            999 V2000
    0.7145    6.7661    0.0000 Br  0  0  0  0  0  0  0  0  0  0  0  0
    0.7145    5.9411    0.0000 C   0  0  0  0  0  0  0  0  0  0  0  0
    1.4289    5.5286    0.0000 C   0  0  0  0  0  0  0  0  0  0  0  0
    1.4289    4.7036    0.0000 C   0  0  0  0  0  0  0  0  0  0  0  0
    0.7145    4.2911    0.0000 C   0  0  0  0  0  0  0  0  0  0  0  0
    0.0000    4.7036    0.0000 C   0  0  0  0  0  0  0  0  0  0  0  0
    0.0000    5.5286    0.0000 C   0  0  0  0  0  0  0  0  0  0  0  0
    0.7145    3.4661    0.0000 C   0  0  0  0  0  0  0  0  0  0  0  0
    1.3819    2.9812    0.0000 C   0  0  0  0  0  0  0  0  0  0  0  0
    1.1270    2.1965    0.0000 N   0  0  0  0  0  0  0  0  0  0  0  0
    0.3020    2.1965    0.0000 C   0  0  0  0  0  0  0  0  0  0  0  0
    0.0470    2.9812    0.0000 N   0  0  0  0  0  0  0  0  0  0  0  0
  1  2  1  0  0  0  0
  2  3  1  0  0  0  0
  3  4  2  0  0  0  0
  4  5  1  0  0  0  0
  5  6  2  0  0  0  0
  6  7  1  0  0  0  0
  2  7  2  0  0  0  0
  5  8  1  0  0  0  0
  8  9  2  0  0  0  0
  9 10  1  0  0  0  0
 10 11  1  0  0  0  0
 11 12  2  0  0  0  0
  8 12  1  0  0  0  0
M  END
>  <Catalog ID>
Z1269191577

>  <Plate_ID>
2026997-X50-01

>  <Well>
E02

>  <V, µL>
50

>  <Conc, mM>
10

>  <Formula>
C9H7BrN2

>  <MW>
223.0693

>  <Purity>
100

>  <PO>
5A-64168

>  <MW_salt>
0

>  <Stereochem.data>
Achiral

>  <Geometric.isomer>
None

>  <Chemical name>
4-(4-bromophenyl)-1H-imidazole

>  <ClogP>
2,953

>  <logS>
-3,35

>  <HBD>
1

>  <HBA>
1

>  <TPSA>
28,68

>  <RotBonds>
1

$$$$

  Mrv1925 04172511382D          

 13 14  0  0  0  0            999 V2000
    4.0668    2.3479    0.0000 C   0  0  0  0  0  0  0  0  0  0  0  0
    3.3523    1.9354    0.0000 C   0  0  0  0  0  0  0  0  0  0  0  0
    3.3523    1.1104    0.0000 C   0  0  0  0  0  0  0  0  0  0  0  0
    2.6378    0.6979    0.0000 C   0  0  0  0  0  0  0  0  0  0  0  0
    1.9233    1.1104    0.0000 C   0  0  0  0  0  0  0  0  0  0  0  0
    1.1387    0.8555    0.0000 N   0  0  0  0  0  0  0  0  0  0  0  0
    0.6538    1.5229    0.0000 C   0  0  0  0  0  0  0  0  0  0  0  0
    1.1387    2.1904    0.0000 C   0  0  0  0  0  0  0  0  0  0  0  0
    1.9233    1.9354    0.0000 C   0  0  0  0  0  0  0  0  0  0  0  0
    2.6378    2.3479    0.0000 C   0  0  0  0  0  0  0  0  0  0  0  0
   -0.1712    1.5229    0.0000 C   0  0  0  0  0  0  0  0  0  0  0  0
   -0.5837    0.8085    0.0000 O   0  0  0  0  0  0  0  0  0  0  0  0
   -0.5837    2.2374    0.0000 O   0  0  0  0  0  0  0  0  0  0  0  0
  1  2  1  0  0  0  0
  2  3  1  0  0  0  0
  3  4  2  0  0  0  0
  4  5  1  0  0  0  0
  5  6  1  0  0  0  0
  6  7  1  0  0  0  0
  7  8  2  0  0  0  0
  8  9  1  0  0  0  0
  5  9  2  0  0  0  0
  9 10  1  0  0  0  0
  2 10  2  0  0  0  0
  7 11  1  0  0  0  0
 11 12  2  0  0  0  0
 11 13  1  0  0  0  0
M  END
>  <Catalog ID>
Z235352033

>  <Plate_ID>
2026997-X50-01

>  <Well>
F02

>  <V, µL>
50

>  <Conc, mM>
10

>  <Formula>
C10H9NO2

>  <MW>
175.184

>  <Purity>
100

>  <PO>
5A-64168

>  <MW_salt>
0

>  <Stereochem.data>
Achiral

>  <Geometric.isomer>
None

>  <Chemical name>
5-methyl-1H-indole-2-carboxylic acid

>  <ClogP>
2,63

>  <logS>
-3,17

>  <HBD>
2

>  <HBA>
2

>  <TPSA>
53,09

>  <RotBonds>
1

$$$$

  Mrv1925 04172511382D          

 14 15  0  0  0  0            999 V2000
   -1.8212   -2.1269    0.0000 O   0  0  0  0  0  0  0  0  0  0  0  0
   -1.4087   -1.4124    0.0000 C   0  0  0  0  0  0  0  0  0  0  0  0
   -1.8212   -0.6979    0.0000 O   0  0  0  0  0  0  0  0  0  0  0  0
   -0.5837   -1.4124    0.0000 C   0  0  0  0  0  0  0  0  0  0  0  0
   -0.1712   -0.6979    0.0000 C   0  0  0  0  0  0  0  0  0  0  0  0
    0.6538   -0.6979    0.0000 C   0  0  0  0  0  0  0  0  0  0  0  0
    1.1387   -0.0305    0.0000 N   0  0  0  0  0  0  0  0  0  0  0  0
    1.9233   -0.2854    0.0000 C   0  0  0  0  0  0  0  0  0  0  0  0
    2.6378    0.1271    0.0000 C   0  0  0  0  0  0  0  0  0  0  0  0
    3.3523   -0.2854    0.0000 C   0  0  0  0  0  0  0  0  0  0  0  0
    3.3523   -1.1104    0.0000 C   0  0  0  0  0  0  0  0  0  0  0  0
    2.6378   -1.5229    0.0000 C   0  0  0  0  0  0  0  0  0  0  0  0
    1.9233   -1.1104    0.0000 C   0  0  0  0  0  0  0  0  0  0  0  0
    1.1387   -1.3654    0.0000 N   0  0  0  0  0  0  0  0  0  0  0  0
  1  2  2  0  0  0  0
  2  3  1  0  0  0  0
  2  4  1  0  0  0  0
  4  5  1  0  0  0  0
  5  6  1  0  0  0  0
  6  7  2  0  0  0  0
  7  8  1  0  0  0  0
  8  9  1  0  0  0  0
  9 10  2  0  0  0  0
 10 11  1  0  0  0  0
 11 12  2  0  0  0  0
 12 13  1  0  0  0  0
  8 13  2  0  0  0  0
 13 14  1  0  0  0  0
  6 14  1  0  0  0  0
M  END
>  <Catalog ID>
Z57115077

>  <Plate_ID>
2026997-X50-01

>  <Well>
G02

>  <V, µL>
50

>  <Conc, mM>
10

>  <Formula>
C10H10N2O2

>  <MW>
190.1986

>  <Purity>
95.85

>  <PO>
5A-64168

>  <MW_salt>
0

>  <Stereochem.data>
Achiral

>  <Geometric.isomer>
None

>  <Chemical name>
3-(1H-1,3-benzodiazol-2-yl)propanoic acid

>  <ClogP>
1,096

>  <logS>
-1,5

>  <HBD>
2

>  <HBA>
3

>  <TPSA>
65,98

>  <RotBonds>
3

$$$$

  Mrv1925 04172511382D          

 11 12  0  0  0  0            999 V2000
   -0.1712   -0.6979    0.0000 N   0  0  0  0  0  0  0  0  0  0  0  0
    0.6538   -0.6979    0.0000 C   0  0  0  0  0  0  0  0  0  0  0  0
    1.1387   -0.0305    0.0000 N   0  0  0  0  0  0  0  0  0  0  0  0
    1.9233   -0.2854    0.0000 C   0  0  0  0  0  0  0  0  0  0  0  0
    2.6378    0.1271    0.0000 C   0  0  0  0  0  0  0  0  0  0  0  0
    2.6378    0.9521    0.0000 Cl  0  0  0  0  0  0  0  0  0  0  0  0
    3.3523   -0.2854    0.0000 C   0  0  0  0  0  0  0  0  0  0  0  0
    3.3523   -1.1104    0.0000 C   0  0  0  0  0  0  0  0  0  0  0  0
    2.6378   -1.5229    0.0000 C   0  0  0  0  0  0  0  0  0  0  0  0
    1.9233   -1.1104    0.0000 C   0  0  0  0  0  0  0  0  0  0  0  0
    1.1387   -1.3654    0.0000 S   0  0  0  0  0  0  0  0  0  0  0  0
  1  2  1  0  0  0  0
  2  3  2  0  0  0  0
  3  4  1  0  0  0  0
  4  5  1  0  0  0  0
  5  6  1  0  0  0  0
  5  7  2  0  0  0  0
  7  8  1  0  0  0  0
  8  9  2  0  0  0  0
  9 10  1  0  0  0  0
  4 10  2  0  0  0  0
 10 11  1  0  0  0  0
  2 11  1  0  0  0  0
M  END
>  <Catalog ID>
Z57607000

>  <Plate_ID>
2026997-X50-01

>  <Well>
H02

>  <V, µL>
50

>  <Conc, mM>
10

>  <Formula>
C7H5ClN2S

>  <MW>
184.646

>  <Purity>
100

>  <PO>
5A-64168

>  <MW_salt>
0

>  <Stereochem.data>
Achiral

>  <Geometric.isomer>
None

>  <Chemical name>
4-chloro-1,3-benzothiazol-2-amine

>  <ClogP>
2,545

>  <logS>
-3,282

>  <HBD>
1

>  <HBA>
2

>  <TPSA>
38,91

>  <RotBonds>
0

$$$$

  Mrv1925 04172511382D          

 11 11  0  0  0  0            999 V2000
    0.7145    2.0625    0.0000 C   0  0  0  0  0  0  0  0  0  0  0  0
    0.7145    1.2375    0.0000 C   0  0  0  0  0  0  0  0  0  0  0  0
    1.4289    0.8250    0.0000 C   0  0  0  0  0  0  0  0  0  0  0  0
    1.4289   -0.0000    0.0000 C   0  0  0  0  0  0  0  0  0  0  0  0
    0.7145   -0.4125    0.0000 C   0  0  0  0  0  0  0  0  0  0  0  0
    0.0000    0.0000    0.0000 C   0  0  0  0  0  0  0  0  0  0  0  0
   -0.7145   -0.4125    0.0000 C   0  0  0  0  0  0  0  0  0  0  0  0
   -0.7145   -1.2375    0.0000 O   0  0  0  0  0  0  0  0  0  0  0  0
   -1.4289    0.0000    0.0000 O   0  0  0  0  0  0  0  0  0  0  0  0
    0.0000    0.8250    0.0000 C   0  0  0  0  0  0  0  0  0  0  0  0
   -0.7145    1.2375    0.0000 N   0  0  0  0  0  0  0  0  0  0  0  0
  1  2  1  0  0  0  0
  2  3  1  0  0  0  0
  3  4  2  0  0  0  0
  4  5  1  0  0  0  0
  5  6  2  0  0  0  0
  6  7  1  0  0  0  0
  7  8  2  0  0  0  0
  7  9  1  0  0  0  0
  6 10  1  0  0  0  0
  2 10  2  0  0  0  0
 10 11  1  0  0  0  0
M  END
>  <Catalog ID>
Z94600359

>  <Plate_ID>
2026997-X50-01

>  <Well>
A03

>  <V, µL>
50

>  <Conc, mM>
10

>  <Formula>
C8H9NO2

>  <MW>
151.1626

>  <Purity>
100

>  <PO>
5A-64168

>  <MW_salt>
0

>  <Stereochem.data>
Achiral

>  <Geometric.isomer>
None

>  <Chemical name>
2-amino-3-methylbenzoic acid

>  <ClogP>
1,657

>  <logS>
-1,62

>  <HBD>
2

>  <HBA>
3

>  <TPSA>
63,32

>  <RotBonds>
1

$$$$

  Mrv1925 04172511382D          

  9  9  0  0  0  0            999 V2000
    0.5678    1.9393    0.0000 C   0  0  0  0  0  0  0  0  0  0  0  0
    0.5678    1.1143    0.0000 C   0  0  0  0  0  0  0  0  0  0  0  0
    1.2352    0.6294    0.0000 N   0  0  0  0  0  0  0  0  0  0  0  0
    0.9803   -0.1553    0.0000 C   0  0  0  0  0  0  0  0  0  0  0  0
    0.1553   -0.1553    0.0000 C   0  0  0  0  0  0  0  0  0  0  0  0
   -0.0997    0.6294    0.0000 S   0  0  0  0  0  0  0  0  0  0  0  0
   -0.3297   -0.8227    0.0000 C   0  0  0  0  0  0  0  0  0  0  0  0
    0.0059   -1.5764    0.0000 O   0  0  0  0  0  0  0  0  0  0  0  0
   -1.1501   -0.7365    0.0000 O   0  0  0  0  0  0  0  0  0  0  0  0
  1  2  1  0  0  0  0
  2  3  2  0  0  0  0
  3  4  1  0  0  0  0
  4  5  2  0  0  0  0
  5  6  1  0  0  0  0
  2  6  1  0  0  0  0
  5  7  1  0  0  0  0
  7  8  2  0  0  0  0
  7  9  1  0  0  0  0
M  END
>  <Catalog ID>
Z385373334

>  <Plate_ID>
2026997-X50-01

>  <Well>
B03

>  <V, µL>
50

>  <Conc, mM>
10

>  <Formula>
C5H5NO2S

>  <MW>
143.1637

>  <Purity>
100

>  <PO>
5A-64168

>  <MW_salt>
0

>  <Stereochem.data>
Achiral

>  <Geometric.isomer>
None

>  <Chemical name>
2-methyl-1,3-thiazole-5-carboxylic acid

>  <ClogP>
1,13

>  <logS>
-0,56

>  <HBD>
1

>  <HBA>
3

>  <TPSA>
50,19

>  <RotBonds>
1

$$$$

  Mrv1925 04172511382D          

 13 13  0  0  0  0            999 V2000
    0.0000    2.4750    0.0000 O   0  0  0  0  0  0  0  0  0  0  0  0
    0.7145    2.0625    0.0000 C   0  0  0  0  0  0  0  0  0  0  0  0
    1.4289    2.4750    0.0000 O   0  0  0  0  0  0  0  0  0  0  0  0
    0.7145    1.2375    0.0000 C   0  0  0  0  0  0  0  0  0  0  0  0
    1.4289    0.8250    0.0000 C   0  0  0  0  0  0  0  0  0  0  0  0
    1.4289   -0.0000    0.0000 C   0  0  0  0  0  0  0  0  0  0  0  0
    0.7145   -0.4125    0.0000 C   0  0  0  0  0  0  0  0  0  0  0  0
    0.0000    0.0000    0.0000 C   0  0  0  0  0  0  0  0  0  0  0  0
    0.0000    0.8250    0.0000 C   0  0  0  0  0  0  0  0  0  0  0  0
    0.7145   -1.2375    0.0000 C   0  0  0  0  0  0  0  0  0  0  0  0
    0.7145   -2.0625    0.0000 F   0  0  0  0  0  0  0  0  0  0  0  0
   -0.1105   -1.2375    0.0000 F   0  0  0  0  0  0  0  0  0  0  0  0
    1.5395   -1.2375    0.0000 F   0  0  0  0  0  0  0  0  0  0  0  0
  1  2  2  0  0  0  0
  2  3  1  0  0  0  0
  2  4  1  0  0  0  0
  4  5  1  0  0  0  0
  5  6  2  0  0  0  0
  6  7  1  0  0  0  0
  7  8  2  0  0  0  0
  8  9  1  0  0  0  0
  4  9  2  0  0  0  0
  7 10  1  0  0  0  0
 10 11  1  0  0  0  0
 10 12  1  0  0  0  0
 10 13  1  0  0  0  0
M  END
>  <Catalog ID>
Z56922105

>  <Plate_ID>
2026997-X50-01

>  <Well>
C03

>  <V, µL>
50

>  <Conc, mM>
10

>  <Formula>
C8H5F3O2

>  <MW>
190.1193

>  <Purity>
90

>  <PO>
5A-64168

>  <MW_salt>
0

>  <Stereochem.data>
Achiral

>  <Geometric.isomer>
None

>  <Chemical name>
4-(trifluoromethyl)benzoic acid

>  <ClogP>
2,94

>  <logS>
-2,6

>  <HBD>
1

>  <HBA>
2

>  <TPSA>
37,3

>  <RotBonds>
2

$$$$

  Mrv1925 04172511382D          

 14 15  0  0  0  0            999 V2000
   -0.9851   -3.2777    0.0000 O   0  0  0  0  0  0  0  0  0  0  0  0
   -0.1781   -3.1062    0.0000 C   0  0  0  0  0  0  0  0  0  0  0  0
    0.3739   -3.7192    0.0000 O   0  0  0  0  0  0  0  0  0  0  0  0
    0.0768   -2.3215    0.0000 C   0  0  0  0  0  0  0  0  0  0  0  0
    0.8838   -2.1500    0.0000 C   0  0  0  0  0  0  0  0  0  0  0  0
    1.1387   -1.3654    0.0000 N   0  0  0  0  0  0  0  0  0  0  0  0
    0.6538   -0.6979    0.0000 C   0  0  0  0  0  0  0  0  0  0  0  0
    1.1387   -0.0305    0.0000 N   0  0  0  0  0  0  0  0  0  0  0  0
    1.9233   -0.2854    0.0000 C   0  0  0  0  0  0  0  0  0  0  0  0
    2.6378    0.1271    0.0000 C   0  0  0  0  0  0  0  0  0  0  0  0
    3.3523   -0.2854    0.0000 C   0  0  0  0  0  0  0  0  0  0  0  0
    3.3523   -1.1104    0.0000 C   0  0  0  0  0  0  0  0  0  0  0  0
    2.6378   -1.5229    0.0000 C   0  0  0  0  0  0  0  0  0  0  0  0
    1.9233   -1.1104    0.0000 C   0  0  0  0  0  0  0  0  0  0  0  0
  1  2  2  0  0  0  0
  2  3  1  0  0  0  0
  2  4  1  0  0  0  0
  4  5  1  0  0  0  0
  5  6  1  0  0  0  0
  6  7  1  0  0  0  0
  7  8  2  0  0  0  0
  8  9  1  0  0  0  0
  9 10  2  0  0  0  0
 10 11  1  0  0  0  0
 11 12  2  0  0  0  0
 12 13  1  0  0  0  0
 13 14  2  0  0  0  0
  9 14  1  0  0  0  0
  6 14  1  0  0  0  0
M  END
>  <Catalog ID>
Z53116455

>  <Plate_ID>
2026997-X50-01

>  <Well>
D03

>  <V, µL>
50

>  <Conc, mM>
10

>  <Formula>
C10H10N2O2

>  <MW>
190.1986

>  <Purity>
95

>  <PO>
5A-64168

>  <MW_salt>
0

>  <Stereochem.data>
Achiral

>  <Geometric.isomer>
None

>  <Chemical name>
3-(1H-1,3-benzodiazol-1-yl)propanoic acid

>  <ClogP>
1,19

>  <logS>
-1,36

>  <HBD>
1

>  <HBA>
3

>  <TPSA>
55,12

>  <RotBonds>
3

$$$$

  Mrv1925 04172511382D          

 15 16  0  0  0  0            999 V2000
    0.8838   -2.1500    0.0000 C   0  0  0  0  0  0  0  0  0  0  0  0
    1.1387   -1.3654    0.0000 N   0  0  0  0  0  0  0  0  0  0  0  0
    0.6538   -0.6979    0.0000 C   0  0  0  0  0  0  0  0  0  0  0  0
    1.1387   -0.0305    0.0000 C   0  0  0  0  0  0  0  0  0  0  0  0
    0.8838    0.7541    0.0000 C   0  0  0  0  0  0  0  0  0  0  0  0
    0.0768    0.9256    0.0000 C   0  0  0  0  0  0  0  0  0  0  0  0
   -0.1781    1.7103    0.0000 C   0  0  0  0  0  0  0  0  0  0  0  0
   -0.9851    1.8818    0.0000 O   0  0  0  0  0  0  0  0  0  0  0  0
    0.3739    2.3234    0.0000 O   0  0  0  0  0  0  0  0  0  0  0  0
    1.9233   -0.2854    0.0000 C   0  0  0  0  0  0  0  0  0  0  0  0
    2.6378    0.1271    0.0000 C   0  0  0  0  0  0  0  0  0  0  0  0
    3.3523   -0.2854    0.0000 C   0  0  0  0  0  0  0  0  0  0  0  0
    3.3523   -1.1104    0.0000 C   0  0  0  0  0  0  0  0  0  0  0  0
    2.6378   -1.5229    0.0000 C   0  0  0  0  0  0  0  0  0  0  0  0
    1.9233   -1.1104    0.0000 C   0  0  0  0  0  0  0  0  0  0  0  0
  1  2  1  0  0  0  0
  2  3  1  0  0  0  0
  3  4  2  0  0  0  0
  4  5  1  0  0  0  0
  5  6  1  0  0  0  0
  6  7  1  0  0  0  0
  7  8  2  0  0  0  0
  7  9  1  0  0  0  0
  4 10  1  0  0  0  0
 10 11  1  0  0  0  0
 11 12  2  0  0  0  0
 12 13  1  0  0  0  0
 13 14  2  0  0  0  0
 14 15  1  0  0  0  0
 10 15  2  0  0  0  0
  2 15  1  0  0  0  0
M  END
>  <Catalog ID>
Z335290460

>  <Plate_ID>
2026997-X50-01

>  <Well>
E03

>  <V, µL>
50

>  <Conc, mM>
10

>  <Formula>
C12H13NO2

>  <MW>
203.2371

>  <Purity>
100

>  <PO>
5A-64168

>  <MW_salt>
0

>  <Stereochem.data>
Achiral

>  <Geometric.isomer>
None

>  <Chemical name>
3-(1-methyl-1H-indol-3-yl)propanoic acid

>  <ClogP>
2,359

>  <logS>
-1,41

>  <HBD>
1

>  <HBA>
2

>  <TPSA>
42,23

>  <RotBonds>
3

$$$$

  Mrv1925 04172511382D          

 13 14  0  0  0  0            999 V2000
   -0.1781   -3.1062    0.0000 O   0  0  0  0  0  0  0  0  0  0  0  0
    0.0768   -2.3215    0.0000 C   0  0  0  0  0  0  0  0  0  0  0  0
   -0.4752   -1.7084    0.0000 O   0  0  0  0  0  0  0  0  0  0  0  0
    0.8838   -2.1500    0.0000 C   0  0  0  0  0  0  0  0  0  0  0  0
    1.1387   -1.3654    0.0000 C   0  0  0  0  0  0  0  0  0  0  0  0
    0.6538   -0.6979    0.0000 N   0  0  0  0  0  0  0  0  0  0  0  0
    1.1387   -0.0305    0.0000 O   0  0  0  0  0  0  0  0  0  0  0  0
    1.9233   -0.2854    0.0000 C   0  0  0  0  0  0  0  0  0  0  0  0
    2.6378    0.1271    0.0000 C   0  0  0  0  0  0  0  0  0  0  0  0
    3.3523   -0.2854    0.0000 C   0  0  0  0  0  0  0  0  0  0  0  0
    3.3523   -1.1104    0.0000 C   0  0  0  0  0  0  0  0  0  0  0  0
    2.6378   -1.5229    0.0000 C   0  0  0  0  0  0  0  0  0  0  0  0
    1.9233   -1.1104    0.0000 C   0  0  0  0  0  0  0  0  0  0  0  0
  1  2  2  0  0  0  0
  2  3  1  0  0  0  0
  2  4  1  0  0  0  0
  4  5  1  0  0  0  0
  5  6  2  0  0  0  0
  6  7  1  0  0  0  0
  7  8  1  0  0  0  0
  8  9  1  0  0  0  0
  9 10  2  0  0  0  0
 10 11  1  0  0  0  0
 11 12  2  0  0  0  0
 12 13  1  0  0  0  0
  5 13  1  0  0  0  0
  8 13  2  0  0  0  0
M  END
>  <Catalog ID>
Z99600464

>  <Plate_ID>
2026997-X50-01

>  <Well>
F03

>  <V, µL>
50

>  <Conc, mM>
10

>  <Formula>
C9H7NO3

>  <MW>
177.1568

>  <Purity>
100

>  <PO>
5A-64168

>  <MW_salt>
0

>  <Stereochem.data>
Achiral

>  <Geometric.isomer>
None

>  <Chemical name>
2-(1,2-benzoxazol-3-yl)acetic acid

>  <ClogP>
0,777

>  <logS>
-1,58

>  <HBD>
1

>  <HBA>
3

>  <TPSA>
63,33

>  <RotBonds>
2

$$$$

  Mrv1925 04172511382D          

 13 14  0  0  0  0            999 V2000
    0.0768   -2.3215    0.0000 C   0  0  0  0  0  0  0  0  0  0  0  0
    0.8838   -2.1500    0.0000 C   0  0  0  0  0  0  0  0  0  0  0  0
    1.4358   -2.7631    0.0000 C   0  0  0  0  0  0  0  0  0  0  0  0
    1.1387   -1.3654    0.0000 N   0  0  0  0  0  0  0  0  0  0  0  0
    0.6538   -0.6979    0.0000 C   0  0  0  0  0  0  0  0  0  0  0  0
   -0.1712   -0.6979    0.0000 N   0  0  0  0  0  0  0  0  0  0  0  0
    1.1387   -0.0305    0.0000 N   0  0  0  0  0  0  0  0  0  0  0  0
    1.9233   -0.2854    0.0000 C   0  0  0  0  0  0  0  0  0  0  0  0
    2.6378    0.1271    0.0000 C   0  0  0  0  0  0  0  0  0  0  0  0
    3.3523   -0.2854    0.0000 C   0  0  0  0  0  0  0  0  0  0  0  0
    3.3523   -1.1104    0.0000 C   0  0  0  0  0  0  0  0  0  0  0  0
    2.6378   -1.5229    0.0000 C   0  0  0  0  0  0  0  0  0  0  0  0
    1.9233   -1.1104    0.0000 C   0  0  0  0  0  0  0  0  0  0  0  0
  1  2  1  0  0  0  0
  2  3  1  0  0  0  0
  2  4  1  0  0  0  0
  4  5  1  0  0  0  0
  5  6  1  0  0  0  0
  5  7  2  0  0  0  0
  7  8  1  0  0  0  0
  8  9  1  0  0  0  0
  9 10  2  0  0  0  0
 10 11  1  0  0  0  0
 11 12  2  0  0  0  0
 12 13  1  0  0  0  0
  8 13  2  0  0  0  0
  4 13  1  0  0  0  0
M  END
>  <Catalog ID>
Z367659362

>  <Plate_ID>
2026997-X50-01

>  <Well>
G03

>  <V, µL>
50

>  <Conc, mM>
10

>  <Formula>
C10H13N3

>  <MW>
175.2303

>  <Purity>
97.53

>  <PO>
5A-64168

>  <MW_salt>
0

>  <Stereochem.data>
Achiral

>  <Geometric.isomer>
None

>  <Chemical name>
1-(propan-2-yl)-1H-1,3-benzodiazol-2-amine

>  <ClogP>
2,134

>  <logS>
-2,12

>  <HBD>
1

>  <HBA>
2

>  <TPSA>
43,84

>  <RotBonds>
1

$$$$

  Mrv1925 04172511382D          

 13 13  0  0  0  0            999 V2000
    0.0000    3.3000    0.0000 N   0  0  0  0  0  0  0  0  0  0  0  0
    0.0000    2.4750    0.0000 C   0  0  0  0  0  0  0  0  0  0  0  0
    0.7145    2.0625    0.0000 C   0  0  0  0  0  0  0  0  0  0  0  0
    0.7145    1.2375    0.0000 C   0  0  0  0  0  0  0  0  0  0  0  0
    1.4289    0.8250    0.0000 C   0  0  0  0  0  0  0  0  0  0  0  0
    1.4289   -0.0000    0.0000 C   0  0  0  0  0  0  0  0  0  0  0  0
    0.7145   -0.4125    0.0000 C   0  0  0  0  0  0  0  0  0  0  0  0
    0.0000    0.0000    0.0000 C   0  0  0  0  0  0  0  0  0  0  0  0
    0.0000    0.8250    0.0000 C   0  0  0  0  0  0  0  0  0  0  0  0
    0.7145   -1.2375    0.0000 S   0  0  0  0  0  0  0  0  0  0  0  0
    0.7145   -2.0625    0.0000 N   0  0  0  0  0  0  0  0  0  0  0  0
   -0.1105   -1.2375    0.0000 O   0  0  0  0  0  0  0  0  0  0  0  0
    1.5395   -1.2375    0.0000 O   0  0  0  0  0  0  0  0  0  0  0  0
  1  2  1  0  0  0  0
  2  3  1  0  0  0  0
  3  4  1  0  0  0  0
  4  5  1  0  0  0  0
  5  6  2  0  0  0  0
  6  7  1  0  0  0  0
  7  8  2  0  0  0  0
  8  9  1  0  0  0  0
  4  9  2  0  0  0  0
  7 10  1  0  0  0  0
 10 11  1  0  0  0  0
 10 12  2  0  0  0  0
 10 13  2  0  0  0  0
M  END
>  <Catalog ID>
Z56755653

>  <Plate_ID>
2026997-X50-01

>  <Well>
H03

>  <V, µL>
50

>  <Conc, mM>
10

>  <Formula>
C8H12N2O2S

>  <MW>
200.2581

>  <Purity>
95

>  <PO>
5A-64168

>  <MW_salt>
0

>  <Stereochem.data>
Achiral

>  <Geometric.isomer>
None

>  <Chemical name>
4-(2-aminoethyl)benzene-1-sulfonamide

>  <ClogP>
-0,404

>  <logS>
-1

>  <HBD>
2

>  <HBA>
3

>  <TPSA>
86,18

>  <RotBonds>
3

$$$$

  Mrv1925 04172511382D          

  9 10  0  0  0  0            999 V2000
    0.6538   -0.6979    0.0000 C   0  0  0  0  0  0  0  0  0  0  0  0
    1.1387   -0.0305    0.0000 C   0  0  0  0  0  0  0  0  0  0  0  0
    1.9233   -0.2854    0.0000 C   0  0  0  0  0  0  0  0  0  0  0  0
    2.6378    0.1271    0.0000 C   0  0  0  0  0  0  0  0  0  0  0  0
    3.3523   -0.2854    0.0000 C   0  0  0  0  0  0  0  0  0  0  0  0
    3.3523   -1.1104    0.0000 C   0  0  0  0  0  0  0  0  0  0  0  0
    2.6378   -1.5229    0.0000 C   0  0  0  0  0  0  0  0  0  0  0  0
    1.9233   -1.1104    0.0000 C   0  0  0  0  0  0  0  0  0  0  0  0
    1.1387   -1.3654    0.0000 N   0  0  0  0  0  0  0  0  0  0  0  0
  1  2  2  0  0  0  0
  2  3  1  0  0  0  0
  3  4  1  0  0  0  0
  4  5  2  0  0  0  0
  5  6  1  0  0  0  0
  6  7  2  0  0  0  0
  7  8  1  0  0  0  0
  3  8  2  0  0  0  0
  8  9  1  0  0  0  0
  1  9  1  0  0  0  0
M  END
>  <Catalog ID>
Z57833933

>  <Plate_ID>
2026997-X50-01

>  <Well>
A04

>  <V, µL>
50

>  <Conc, mM>
10

>  <Formula>
C8H7N

>  <MW>
117.1479

>  <Purity>
98

>  <PO>
5A-64168

>  <MW_salt>
0

>  <Stereochem.data>
Achiral

>  <Geometric.isomer>
None

>  <Chemical name>
1H-indole

>  <ClogP>
2,132

>  <logS>
-2,24

>  <HBD>
1

>  <HBA>
0

>  <TPSA>
15,79

>  <RotBonds>
0

$$$$

  Mrv1925 04172511382D          

 11 12  0  0  0  0            999 V2000
   -0.5837   -1.4124    0.0000 O   0  0  0  0  0  0  0  0  0  0  0  0
   -0.1712   -0.6979    0.0000 C   0  0  0  0  0  0  0  0  0  0  0  0
    0.6538   -0.6979    0.0000 C   0  0  0  0  0  0  0  0  0  0  0  0
    1.1387   -0.0305    0.0000 N   0  0  0  0  0  0  0  0  0  0  0  0
    1.9233   -0.2854    0.0000 C   0  0  0  0  0  0  0  0  0  0  0  0
    2.6378    0.1271    0.0000 C   0  0  0  0  0  0  0  0  0  0  0  0
    3.3523   -0.2854    0.0000 C   0  0  0  0  0  0  0  0  0  0  0  0
    3.3523   -1.1104    0.0000 C   0  0  0  0  0  0  0  0  0  0  0  0
    2.6378   -1.5229    0.0000 C   0  0  0  0  0  0  0  0  0  0  0  0
    1.9233   -1.1104    0.0000 C   0  0  0  0  0  0  0  0  0  0  0  0
    1.1387   -1.3654    0.0000 N   0  0  0  0  0  0  0  0  0  0  0  0
  1  2  1  0  0  0  0
  2  3  1  0  0  0  0
  3  4  2  0  0  0  0
  4  5  1  0  0  0  0
  5  6  1  0  0  0  0
  6  7  2  0  0  0  0
  7  8  1  0  0  0  0
  8  9  2  0  0  0  0
  9 10  1  0  0  0  0
  5 10  2  0  0  0  0
 10 11  1  0  0  0  0
  3 11  1  0  0  0  0
M  END
>  <Catalog ID>
Z56791635

>  <Plate_ID>
2026997-X50-01

>  <Well>
B04

>  <V, µL>
50

>  <Conc, mM>
10

>  <Formula>
C8H8N2O

>  <MW>
148.1619

>  <Purity>
100

>  <PO>
5A-64168

>  <MW_salt>
0

>  <Stereochem.data>
Achiral

>  <Geometric.isomer>
None

>  <Chemical name>
(1H-1,3-benzodiazol-2-yl)methanol

>  <ClogP>
0,527

>  <logS>
-1,31

>  <HBD>
2

>  <HBA>
2

>  <TPSA>
48,91

>  <RotBonds>
1

$$$$

  Mrv1925 04172511382D          

  9  9  0  0  0  0            999 V2000
    0.0000    2.4750    0.0000 N   0  0  0  0  0  0  0  0  0  0  0  0
    0.7145    2.0625    0.0000 C   0  0  0  0  0  0  0  0  0  0  0  0
    1.4289    2.4750    0.0000 O   0  0  0  0  0  0  0  0  0  0  0  0
    0.7145    1.2375    0.0000 C   0  0  0  0  0  0  0  0  0  0  0  0
    1.4289    0.8250    0.0000 C   0  0  0  0  0  0  0  0  0  0  0  0
    1.4289   -0.0000    0.0000 C   0  0  0  0  0  0  0  0  0  0  0  0
    0.7145   -0.4125    0.0000 C   0  0  0  0  0  0  0  0  0  0  0  0
    0.0000    0.0000    0.0000 N   0  0  0  0  0  0  0  0  0  0  0  0
    0.0000    0.8250    0.0000 C   0  0  0  0  0  0  0  0  0  0  0  0
  1  2  1  0  0  0  0
  2  3  2  0  0  0  0
  2  4  1  0  0  0  0
  4  5  1  0  0  0  0
  5  6  2  0  0  0  0
  6  7  1  0  0  0  0
  7  8  2  0  0  0  0
  8  9  1  0  0  0  0
  4  9  2  0  0  0  0
M  END
>  <Catalog ID>
Z33546463

>  <Plate_ID>
2026997-X50-01

>  <Well>
C04

>  <V, µL>
50

>  <Conc, mM>
10

>  <Formula>
C6H6N2O

>  <MW>
122.1246

>  <Purity>
98

>  <PO>
5A-64168

>  <MW_salt>
0

>  <Stereochem.data>
Achiral

>  <Geometric.isomer>
None

>  <Chemical name>
pyridine-3-carboxamide

>  <ClogP>
-0,206

>  <logS>
-0,42

>  <HBD>
1

>  <HBA>
2

>  <TPSA>
55,98

>  <RotBonds>
1

$$$$

  Mrv1925 04172511382D          

 19 21  0  0  0  0            999 V2000
    1.4289    3.3000    0.0000 O   0  0  0  0  0  0  0  0  0  0  0  0
    1.4289    2.4750    0.0000 C   0  0  0  0  0  0  0  0  0  0  0  0
    0.7145    2.0625    0.0000 O   0  0  0  0  0  0  0  0  0  0  0  0
    2.1434    2.0625    0.0000 C   0  0  0  0  0  0  0  0  0  0  0  0
    2.1434    1.2375    0.0000 N   0  0  0  0  0  0  0  0  0  0  0  0
    2.8579    0.8250    0.0000 C   0  0  0  0  0  0  0  0  0  0  0  0
    3.5724    1.2375    0.0000 C   0  0  0  0  0  0  0  0  0  0  0  0
    4.2868    0.8250    0.0000 C   0  0  0  0  0  0  0  0  0  0  0  0
    4.2868   -0.0000    0.0000 C   0  0  0  0  0  0  0  0  0  0  0  0
    3.5724   -0.4125    0.0000 C   0  0  0  0  0  0  0  0  0  0  0  0
    2.8579    0.0000    0.0000 C   0  0  0  0  0  0  0  0  0  0  0  0
    2.1434   -0.4125    0.0000 C   0  0  0  0  0  0  0  0  0  0  0  0
    2.1434   -1.2375    0.0000 O   0  0  0  0  0  0  0  0  0  0  0  0
    1.4289    0.0000    0.0000 C   0  0  0  0  0  0  0  0  0  0  0  0
    0.7145   -0.4125    0.0000 C   0  0  0  0  0  0  0  0  0  0  0  0
   -0.0000    0.0000    0.0000 C   0  0  0  0  0  0  0  0  0  0  0  0
    0.0000    0.8250    0.0000 C   0  0  0  0  0  0  0  0  0  0  0  0
    0.7145    1.2375    0.0000 C   0  0  0  0  0  0  0  0  0  0  0  0
    1.4289    0.8250    0.0000 C   0  0  0  0  0  0  0  0  0  0  0  0
  1  2  2  0  0  0  0
  2  3  1  0  0  0  0
  2  4  1  0  0  0  0
  4  5  1  0  0  0  0
  5  6  1  0  0  0  0
  6  7  1  0  0  0  0
  7  8  2  0  0  0  0
  8  9  1  0  0  0  0
  9 10  2  0  0  0  0
 10 11  1  0  0  0  0
  6 11  2  0  0  0  0
 11 12  1  0  0  0  0
 12 13  2  0  0  0  0
 12 14  1  0  0  0  0
 14 15  1  0  0  0  0
 15 16  2  0  0  0  0
 16 17  1  0  0  0  0
 17 18  2  0  0  0  0
 18 19  1  0  0  0  0
 14 19  2  0  0  0  0
  5 19  1  0  0  0  0
M  END
>  <Catalog ID>
Z57473348

>  <Plate_ID>
2026997-X50-01

>  <Well>
D04

>  <V, µL>
50

>  <Conc, mM>
10

>  <Formula>
C15H11NO3

>  <MW>
253.2527

>  <Purity>
100

>  <PO>
5A-64168

>  <MW_salt>
0

>  <Stereochem.data>
Achiral

>  <Geometric.isomer>
None

>  <Chemical name>
2-(9-oxo-9,10-dihydroacridin-10-yl)acetic acid

>  <ClogP>
1,314

>  <logS>
-3,35

>  <HBD>
1

>  <HBA>
4

>  <TPSA>
57,61

>  <RotBonds>
2

$$$$

  Mrv1925 04172511382D          

 12 13  0  0  0  0            999 V2000
    0.0000   -1.6500    0.0000 O   0  0  0  0  0  0  0  0  0  0  0  0
    0.7145   -1.2375    0.0000 C   0  0  0  0  0  0  0  0  0  0  0  0
    0.7145   -0.4125    0.0000 C   0  0  0  0  0  0  0  0  0  0  0  0
    1.4289    0.0000    0.0000 C   0  0  0  0  0  0  0  0  0  0  0  0
    2.1434   -0.4125    0.0000 C   0  0  0  0  0  0  0  0  0  0  0  0
    2.8579    0.0000    0.0000 C   0  0  0  0  0  0  0  0  0  0  0  0
    3.5724   -0.4125    0.0000 C   0  0  0  0  0  0  0  0  0  0  0  0
    3.5724   -1.2375    0.0000 C   0  0  0  0  0  0  0  0  0  0  0  0
    4.2868   -1.6500    0.0000 O   0  0  0  0  0  0  0  0  0  0  0  0
    2.8579   -1.6500    0.0000 C   0  0  0  0  0  0  0  0  0  0  0  0
    2.1434   -1.2375    0.0000 C   0  0  0  0  0  0  0  0  0  0  0  0
    1.4289   -1.6500    0.0000 O   0  0  0  0  0  0  0  0  0  0  0  0
  1  2  2  0  0  0  0
  2  3  1  0  0  0  0
  3  4  2  0  0  0  0
  4  5  1  0  0  0  0
  5  6  1  0  0  0  0
  6  7  2  0  0  0  0
  7  8  1  0  0  0  0
  8  9  1  0  0  0  0
  8 10  2  0  0  0  0
 10 11  1  0  0  0  0
  5 11  2  0  0  0  0
 11 12  1  0  0  0  0
  2 12  1  0  0  0  0
M  END
>  <Catalog ID>
Z57150899

>  <Plate_ID>
2026997-X50-01

>  <Well>
E04

>  <V, µL>
50

>  <Conc, mM>
10

>  <Formula>
C9H6O3

>  <MW>
162.1421

>  <Purity>
99.53

>  <PO>
5A-64168

>  <MW_salt>
0

>  <Stereochem.data>
Achiral

>  <Geometric.isomer>
None

>  <Chemical name>
7-hydroxy-2H-chromen-2-one

>  <ClogP>
1,623

>  <logS>
-2,16

>  <HBD>
1

>  <HBA>
2

>  <TPSA>
46,53

>  <RotBonds>
0

$$$$

  Mrv1925 04172511382D          

 10 11  0  0  0  0            999 V2000
    0.8838   -2.1500    0.0000 O   0  0  0  0  0  0  0  0  0  0  0  0
    1.1387   -1.3654    0.0000 C   0  0  0  0  0  0  0  0  0  0  0  0
    0.6538   -0.6979    0.0000 C   0  0  0  0  0  0  0  0  0  0  0  0
    1.1387   -0.0305    0.0000 C   0  0  0  0  0  0  0  0  0  0  0  0
    1.9233   -0.2854    0.0000 C   0  0  0  0  0  0  0  0  0  0  0  0
    2.6378    0.1271    0.0000 C   0  0  0  0  0  0  0  0  0  0  0  0
    3.3523   -0.2854    0.0000 C   0  0  0  0  0  0  0  0  0  0  0  0
    3.3523   -1.1104    0.0000 C   0  0  0  0  0  0  0  0  0  0  0  0
    2.6378   -1.5229    0.0000 C   0  0  0  0  0  0  0  0  0  0  0  0
    1.9233   -1.1104    0.0000 C   0  0  0  0  0  0  0  0  0  0  0  0
  1  2  2  0  0  0  0
  2  3  1  0  0  0  0
  3  4  1  0  0  0  0
  4  5  1  0  0  0  0
  5  6  1  0  0  0  0
  6  7  2  0  0  0  0
  7  8  1  0  0  0  0
  8  9  2  0  0  0  0
  9 10  1  0  0  0  0
  2 10  1  0  0  0  0
  5 10  2  0  0  0  0
M  END
>  <Catalog ID>
Z104495974

>  <Plate_ID>
2026997-X50-01

>  <Well>
F04

>  <V, µL>
50

>  <Conc, mM>
10

>  <Formula>
C9H8O

>  <MW>
132.1592

>  <Purity>
100

>  <PO>
5A-64168

>  <MW_salt>
0

>  <Stereochem.data>
Achiral

>  <Geometric.isomer>
None

>  <Chemical name>
2,3-dihydro-1H-inden-1-one

>  <ClogP>
1,716

>  <logS>
-1,94

>  <HBD>
0

>  <HBA>
1

>  <TPSA>
17,07

>  <RotBonds>
0

$$$$

  Mrv1925 04172511382D          

  9  9  0  0  0  0            999 V2000
    0.0000    2.4750    0.0000 N   0  0  0  0  0  0  0  0  0  0  0  0
    0.7145    2.0625    0.0000 C   0  0  0  0  0  0  0  0  0  0  0  0
    1.4289    2.4750    0.0000 O   0  0  0  0  0  0  0  0  0  0  0  0
    0.7145    1.2375    0.0000 C   0  0  0  0  0  0  0  0  0  0  0  0
    1.4289    0.8250    0.0000 C   0  0  0  0  0  0  0  0  0  0  0  0
    1.4289   -0.0000    0.0000 C   0  0  0  0  0  0  0  0  0  0  0  0
    0.7145   -0.4125    0.0000 C   0  0  0  0  0  0  0  0  0  0  0  0
    0.0000    0.0000    0.0000 C   0  0  0  0  0  0  0  0  0  0  0  0
    0.0000    0.8250    0.0000 N   0  0  0  0  0  0  0  0  0  0  0  0
  1  2  1  0  0  0  0
  2  3  2  0  0  0  0
  2  4  1  0  0  0  0
  4  5  1  0  0  0  0
  5  6  2  0  0  0  0
  6  7  1  0  0  0  0
  7  8  2  0  0  0  0
  8  9  1  0  0  0  0
  4  9  2  0  0  0  0
M  END
>  <Catalog ID>
Z33546380

>  <Plate_ID>
2026997-X50-01

>  <Well>
G04

>  <V, µL>
50

>  <Conc, mM>
10

>  <Formula>
C6H6N2O

>  <MW>
122.1246

>  <Purity>
100

>  <PO>
5A-64168

>  <MW_salt>
0

>  <Stereochem.data>
Achiral

>  <Geometric.isomer>
None

>  <Chemical name>
pyridine-2-carboxamide

>  <ClogP>
0,144

>  <logS>
-0,67

>  <HBD>
1

>  <HBA>
2

>  <TPSA>
55,98

>  <RotBonds>
1

$$$$

  Mrv1925 04172511382D          

 13 14  0  0  0  0            999 V2000
    0.0000   -0.0000    0.0000 C   0  0  0  0  0  0  0  0  0  0  0  0
    0.7145   -0.4125    0.0000 C   0  0  0  0  0  0  0  0  0  0  0  0
    1.4289    0.0000    0.0000 N   0  0  0  0  0  0  0  0  0  0  0  0
    2.1434   -0.4125    0.0000 C   0  0  0  0  0  0  0  0  0  0  0  0
    2.8579    0.0000    0.0000 C   0  0  0  0  0  0  0  0  0  0  0  0
    3.5724   -0.4125    0.0000 C   0  0  0  0  0  0  0  0  0  0  0  0
    3.5724   -1.2375    0.0000 C   0  0  0  0  0  0  0  0  0  0  0  0
    2.8579   -1.6500    0.0000 C   0  0  0  0  0  0  0  0  0  0  0  0
    2.1434   -1.2375    0.0000 C   0  0  0  0  0  0  0  0  0  0  0  0
    1.4289   -1.6500    0.0000 C   0  0  0  0  0  0  0  0  0  0  0  0
    1.4289   -2.4750    0.0000 O   0  0  0  0  0  0  0  0  0  0  0  0
    0.7145   -1.2375    0.0000 C   0  0  0  0  0  0  0  0  0  0  0  0
    0.0000   -1.6500    0.0000 O   0  0  0  0  0  0  0  0  0  0  0  0
  1  2  1  0  0  0  0
  2  3  1  0  0  0  0
  3  4  1  0  0  0  0
  4  5  1  0  0  0  0
  5  6  2  0  0  0  0
  6  7  1  0  0  0  0
  7  8  2  0  0  0  0
  8  9  1  0  0  0  0
  4  9  2  0  0  0  0
  9 10  1  0  0  0  0
 10 11  2  0  0  0  0
 10 12  1  0  0  0  0
  2 12  2  0  0  0  0
 12 13  1  0  0  0  0
M  END
>  <Catalog ID>
Z1255448123

>  <Plate_ID>
2026997-X50-01

>  <Well>
H04

>  <V, µL>
50

>  <Conc, mM>
10

>  <Formula>
C10H9NO2

>  <MW>
175.184

>  <Purity>
100

>  <PO>
5A-64168

>  <MW_salt>
0

>  <Stereochem.data>
Achiral

>  <Geometric.isomer>
None

>  <Chemical name>
3-hydroxy-2-methyl-1,4-dihydroquinolin-4-one

>  <ClogP>
0,314

>  <logS>
-2,03

>  <HBD>
2

>  <HBA>
3

>  <TPSA>
49,33

>  <RotBonds>
0

$$$$

  Mrv1925 04172511382D          

  9  9  0  0  0  0            999 V2000
    0.0000    2.4750    0.0000 N   0  0  0  0  0  0  0  0  0  0  0  0
    0.7145    2.0625    0.0000 C   0  0  0  0  0  0  0  0  0  0  0  0
    1.4289    2.4750    0.0000 O   0  0  0  0  0  0  0  0  0  0  0  0
    0.7145    1.2375    0.0000 C   0  0  0  0  0  0  0  0  0  0  0  0
    1.4289    0.8250    0.0000 C   0  0  0  0  0  0  0  0  0  0  0  0
    1.4289   -0.0000    0.0000 N   0  0  0  0  0  0  0  0  0  0  0  0
    0.7145   -0.4125    0.0000 C   0  0  0  0  0  0  0  0  0  0  0  0
    0.0000    0.0000    0.0000 C   0  0  0  0  0  0  0  0  0  0  0  0
    0.0000    0.8250    0.0000 N   0  0  0  0  0  0  0  0  0  0  0  0
  1  2  1  0  0  0  0
  2  3  2  0  0  0  0
  2  4  1  0  0  0  0
  4  5  1  0  0  0  0
  5  6  2  0  0  0  0
  6  7  1  0  0  0  0
  7  8  2  0  0  0  0
  8  9  1  0  0  0  0
  4  9  2  0  0  0  0
M  END
>  <Catalog ID>
Z33546644

>  <Plate_ID>
2026997-X50-01

>  <Well>
A05

>  <V, µL>
50

>  <Conc, mM>
10

>  <Formula>
C5H5N3O

>  <MW>
123.1127

>  <Purity>
100

>  <PO>
5A-64168

>  <MW_salt>
0

>  <Stereochem.data>
Achiral

>  <Geometric.isomer>
None

>  <Chemical name>
pyrazine-2-carboxamide

>  <ClogP>
-0,676

>  <logS>
0,47

>  <HBD>
1

>  <HBA>
3

>  <TPSA>
68,87

>  <RotBonds>
1

$$$$

  Mrv1925 04172511382D          

 11 11  0  0  0  0            999 V2000
    0.7145    2.0625    0.0000 C   0  0  0  0  0  0  0  0  0  0  0  0
    0.7145    1.2375    0.0000 C   0  0  0  0  0  0  0  0  0  0  0  0
    1.4289    0.8250    0.0000 C   0  0  0  0  0  0  0  0  0  0  0  0
    1.4289   -0.0000    0.0000 C   0  0  0  0  0  0  0  0  0  0  0  0
    0.7145   -0.4125    0.0000 C   0  0  0  0  0  0  0  0  0  0  0  0
    0.0000    0.0000    0.0000 C   0  0  0  0  0  0  0  0  0  0  0  0
    0.0000    0.8250    0.0000 C   0  0  0  0  0  0  0  0  0  0  0  0
   -0.7145    1.2375    0.0000 S   0  0  0  0  0  0  0  0  0  0  0  0
   -1.4289    1.6500    0.0000 N   0  0  0  0  0  0  0  0  0  0  0  0
   -0.3020    1.9520    0.0000 O   0  0  0  0  0  0  0  0  0  0  0  0
   -1.1270    0.5230    0.0000 O   0  0  0  0  0  0  0  0  0  0  0  0
  1  2  1  0  0  0  0
  2  3  1  0  0  0  0
  3  4  2  0  0  0  0
  4  5  1  0  0  0  0
  5  6  2  0  0  0  0
  6  7  1  0  0  0  0
  2  7  2  0  0  0  0
  7  8  1  0  0  0  0
  8  9  1  0  0  0  0
  8 10  2  0  0  0  0
  8 11  2  0  0  0  0
M  END
>  <Catalog ID>
Z57902803

>  <Plate_ID>
2026997-X50-01

>  <Well>
B05

>  <V, µL>
50

>  <Conc, mM>
10

>  <Formula>
C7H9NO2S

>  <MW>
171.2169

>  <Purity>
100

>  <PO>
5A-64168

>  <MW_salt>
0

>  <Stereochem.data>
Achiral

>  <Geometric.isomer>
None

>  <Chemical name>
2-methylbenzene-1-sulfonamide

>  <ClogP>
0,804

>  <logS>
-1,61

>  <HBD>
1

>  <HBA>
2

>  <TPSA>
60,16

>  <RotBonds>
1

$$$$

  Mrv1925 04172511382D          

 13 14  0  0  0  0            999 V2000
   -0.9962   -0.6979    0.0000 N   0  0  0  0  0  0  0  0  0  0  0  0
   -0.1712   -0.6979    0.0000 S   0  0  0  0  0  0  0  0  0  0  0  0
   -0.1712   -1.5229    0.0000 O   0  0  0  0  0  0  0  0  0  0  0  0
   -0.1712    0.1271    0.0000 O   0  0  0  0  0  0  0  0  0  0  0  0
    0.6538   -0.6979    0.0000 C   0  0  0  0  0  0  0  0  0  0  0  0
    1.1387   -0.0305    0.0000 N   0  0  0  0  0  0  0  0  0  0  0  0
    1.9233   -0.2854    0.0000 C   0  0  0  0  0  0  0  0  0  0  0  0
    2.6378    0.1271    0.0000 C   0  0  0  0  0  0  0  0  0  0  0  0
    3.3523   -0.2854    0.0000 C   0  0  0  0  0  0  0  0  0  0  0  0
    3.3523   -1.1104    0.0000 C   0  0  0  0  0  0  0  0  0  0  0  0
    2.6378   -1.5229    0.0000 C   0  0  0  0  0  0  0  0  0  0  0  0
    1.9233   -1.1104    0.0000 C   0  0  0  0  0  0  0  0  0  0  0  0
    1.1387   -1.3654    0.0000 N   0  0  0  0  0  0  0  0  0  0  0  0
  1  2  1  0  0  0  0
  2  3  2  0  0  0  0
  2  4  2  0  0  0  0
  2  5  1  0  0  0  0
  5  6  2  0  0  0  0
  6  7  1  0  0  0  0
  7  8  2  0  0  0  0
  8  9  1  0  0  0  0
  9 10  2  0  0  0  0
 10 11  1  0  0  0  0
 11 12  2  0  0  0  0
  7 12  1  0  0  0  0
 12 13  1  0  0  0  0
  5 13  1  0  0  0  0
M  END
>  <Catalog ID>
Z969591530

>  <Plate_ID>
2026997-X50-01

>  <Well>
C05

>  <V, µL>
50

>  <Conc, mM>
10

>  <Formula>
C7H7N3O2S

>  <MW>
197.2144

>  <Purity>
98.91

>  <PO>
5A-64168

>  <MW_salt>
0

>  <Stereochem.data>
Achiral

>  <Geometric.isomer>
None

>  <Chemical name>
1H-1,3-benzodiazole-2-sulfonamide

>  <ClogP>
0,749

>  <logS>
-2,49

>  <HBD>
2

>  <HBA>
3

>  <TPSA>
88,84

>  <RotBonds>
1

$$$$

  Mrv1925 04172511382D          

 12 13  0  0  0  0            999 V2000
    2.5645    2.4750    0.0000 N   0  0  0  0  0  0  0  0  0  0  0  0
    3.2789    2.0625    0.0000 C   0  0  0  0  0  0  0  0  0  0  0  0
    3.9934    2.4750    0.0000 O   0  0  0  0  0  0  0  0  0  0  0  0
    3.2789    1.2375    0.0000 C   0  0  0  0  0  0  0  0  0  0  0  0
    3.9934    0.8250    0.0000 C   0  0  0  0  0  0  0  0  0  0  0  0
    3.9934    0.0000    0.0000 C   0  0  0  0  0  0  0  0  0  0  0  0
    3.2789   -0.4125    0.0000 C   0  0  0  0  0  0  0  0  0  0  0  0
    2.5645    0.0000    0.0000 C   0  0  0  0  0  0  0  0  0  0  0  0
    1.7798   -0.2549    0.0000 N   0  0  0  0  0  0  0  0  0  0  0  0
    1.2949    0.4125    0.0000 C   0  0  0  0  0  0  0  0  0  0  0  0
    1.7798    1.0799    0.0000 C   0  0  0  0  0  0  0  0  0  0  0  0
    2.5645    0.8250    0.0000 C   0  0  0  0  0  0  0  0  0  0  0  0
  1  2  1  0  0  0  0
  2  3  2  0  0  0  0
  2  4  1  0  0  0  0
  4  5  1  0  0  0  0
  5  6  2  0  0  0  0
  6  7  1  0  0  0  0
  7  8  2  0  0  0  0
  8  9  1  0  0  0  0
  9 10  1  0  0  0  0
 10 11  2  0  0  0  0
 11 12  1  0  0  0  0
  4 12  2  0  0  0  0
  8 12  1  0  0  0  0
M  END
>  <Catalog ID>
Z415653738

>  <Plate_ID>
2026997-X50-01

>  <Well>
D05

>  <V, µL>
50

>  <Conc, mM>
10

>  <Formula>
C9H8N2O

>  <MW>
160.1726

>  <Purity>
100

>  <PO>
5A-64168

>  <MW_salt>
0

>  <Stereochem.data>
Achiral

>  <Geometric.isomer>
None

>  <Chemical name>
1H-indole-4-carboxamide

>  <ClogP>
0,837

>  <logS>
-2,46

>  <HBD>
2

>  <HBA>
1

>  <TPSA>
58,88

>  <RotBonds>
1

$$$$

  Mrv1925 04172511382D          

 15 17  0  0  0  0            999 V2000
    0.6538   -0.6979    0.0000 C   0  0  0  0  0  0  0  0  0  0  0  0
    1.1387   -0.0305    0.0000 C   0  0  0  0  0  0  0  0  0  0  0  0
    1.9233   -0.2854    0.0000 C   0  0  0  0  0  0  0  0  0  0  0  0
    2.6378    0.1271    0.0000 C   0  0  0  0  0  0  0  0  0  0  0  0
    3.3523   -0.2854    0.0000 C   0  0  0  0  0  0  0  0  0  0  0  0
    3.3523   -1.1104    0.0000 C   0  0  0  0  0  0  0  0  0  0  0  0
    2.6378   -1.5229    0.0000 C   0  0  0  0  0  0  0  0  0  0  0  0
    1.9233   -1.1104    0.0000 C   0  0  0  0  0  0  0  0  0  0  0  0
    1.1387   -1.3654    0.0000 N   0  0  0  0  0  0  0  0  0  0  0  0
    2.6378    0.9521    0.0000 N   0  0  0  0  0  0  0  0  0  0  0  0
    1.9233    1.3646    0.0000 C   0  0  0  0  0  0  0  0  0  0  0  0
    1.9233    2.1896    0.0000 C   0  0  0  0  0  0  0  0  0  0  0  0
    2.6378    2.6021    0.0000 N   0  0  0  0  0  0  0  0  0  0  0  0
    3.3523    2.1896    0.0000 C   0  0  0  0  0  0  0  0  0  0  0  0
    3.3523    1.3646    0.0000 C   0  0  0  0  0  0  0  0  0  0  0  0
  1  2  2  0  0  0  0
  2  3  1  0  0  0  0
  3  4  1  0  0  0  0
  4  5  2  0  0  0  0
  5  6  1  0  0  0  0
  6  7  2  0  0  0  0
  7  8  1  0  0  0  0
  3  8  2  0  0  0  0
  8  9  1  0  0  0  0
  1  9  1  0  0  0  0
  4 10  1  0  0  0  0
 10 11  1  0  0  0  0
 11 12  1  0  0  0  0
 12 13  1  0  0  0  0
 13 14  1  0  0  0  0
 14 15  1  0  0  0  0
 10 15  1  0  0  0  0
M  END
>  <Catalog ID>
Z1509140701

>  <Plate_ID>
2026997-X50-01

>  <Well>
E05

>  <V, µL>
50

>  <Conc, mM>
10

>  <Formula>
C12H15N3

>  <MW>
201.2676

>  <Purity>
97

>  <PO>
5A-64168

>  <MW_salt>
0

>  <Stereochem.data>
Achiral

>  <Geometric.isomer>
None

>  <Chemical name>
4-(piperazin-1-yl)-1H-indole

>  <ClogP>
1,574

>  <logS>
-2,254

>  <HBD>
2

>  <HBA>
2

>  <TPSA>
31,06

>  <RotBonds>
1

$$$$

  Mrv1925 04172511382D          

 11 11  0  0  0  0            999 V2000
    0.7145    2.0625    0.0000 N   0  0  0  0  0  0  0  0  0  0  0  0
    0.7145    1.2375    0.0000 C   0  0  0  0  0  0  0  0  0  0  0  0
    1.4289    0.8250    0.0000 C   0  0  0  0  0  0  0  0  0  0  0  0
    1.4289   -0.0000    0.0000 C   0  0  0  0  0  0  0  0  0  0  0  0
    0.7145   -0.4125    0.0000 C   0  0  0  0  0  0  0  0  0  0  0  0
    0.7145   -1.2375    0.0000 C   0  0  0  0  0  0  0  0  0  0  0  0
    1.4289   -1.6500    0.0000 O   0  0  0  0  0  0  0  0  0  0  0  0
   -0.0000   -1.6500    0.0000 O   0  0  0  0  0  0  0  0  0  0  0  0
    0.0000    0.0000    0.0000 C   0  0  0  0  0  0  0  0  0  0  0  0
   -0.7145   -0.4125    0.0000 O   0  0  0  0  0  0  0  0  0  0  0  0
    0.0000    0.8250    0.0000 C   0  0  0  0  0  0  0  0  0  0  0  0
  1  2  1  0  0  0  0
  2  3  1  0  0  0  0
  3  4  2  0  0  0  0
  4  5  1  0  0  0  0
  5  6  1  0  0  0  0
  6  7  2  0  0  0  0
  6  8  1  0  0  0  0
  5  9  2  0  0  0  0
  9 10  1  0  0  0  0
  9 11  1  0  0  0  0
  2 11  2  0  0  0  0
M  END
>  <Catalog ID>
Z90121065

>  <Plate_ID>
2026997-X50-01

>  <Well>
F05

>  <V, µL>
50

>  <Conc, mM>
10

>  <Formula>
C7H7NO3

>  <MW>
153.1354

>  <Purity>
95

>  <PO>
5A-64168

>  <MW_salt>
0

>  <Stereochem.data>
Achiral

>  <Geometric.isomer>
None

>  <Chemical name>
4-amino-2-hydroxybenzoic acid

>  <ClogP>
1,056

>  <logS>
-0,95

>  <HBD>
3

>  <HBA>
4

>  <TPSA>
83,55

>  <RotBonds>
1

$$$$

  Mrv1925 04172511382D          

 18 19  0  0  0  0            999 V2000
    1.4289    0.0000    0.0000 O   0  0  0  0  0  0  0  0  0  0  0  0
    2.1434   -0.4125    0.0000 C   0  0  0  0  0  0  0  0  0  0  0  0
    2.8579    0.0000    0.0000 O   0  0  0  0  0  0  0  0  0  0  0  0
    2.1434   -1.2375    0.0000 C   0  0  0  0  0  0  0  0  0  0  0  0
    1.4289   -1.6500    0.0000 C   0  0  0  0  0  0  0  0  0  0  0  0
    1.4289   -2.4750    0.0000 C   0  0  0  0  0  0  0  0  0  0  0  0
    2.1434   -2.8875    0.0000 C   0  0  0  0  0  0  0  0  0  0  0  0
    2.8579   -2.4750    0.0000 C   0  0  0  0  0  0  0  0  0  0  0  0
    2.8579   -1.6500    0.0000 C   0  0  0  0  0  0  0  0  0  0  0  0
    3.5724   -1.2375    0.0000 C   0  0  0  0  0  0  0  0  0  0  0  0
    3.5724   -0.4125    0.0000 O   0  0  0  0  0  0  0  0  0  0  0  0
    4.2868   -1.6500    0.0000 C   0  0  0  0  0  0  0  0  0  0  0  0
    5.0013   -1.2375    0.0000 C   0  0  0  0  0  0  0  0  0  0  0  0
    5.7158   -1.6500    0.0000 C   0  0  0  0  0  0  0  0  0  0  0  0
    5.7158   -2.4750    0.0000 C   0  0  0  0  0  0  0  0  0  0  0  0
    6.4302   -2.8875    0.0000 F   0  0  0  0  0  0  0  0  0  0  0  0
    5.0013   -2.8875    0.0000 C   0  0  0  0  0  0  0  0  0  0  0  0
    4.2868   -2.4750    0.0000 C   0  0  0  0  0  0  0  0  0  0  0  0
  1  2  2  0  0  0  0
  2  3  1  0  0  0  0
  2  4  1  0  0  0  0
  4  5  1  0  0  0  0
  5  6  2  0  0  0  0
  6  7  1  0  0  0  0
  7  8  2  0  0  0  0
  8  9  1  0  0  0  0
  4  9  2  0  0  0  0
  9 10  1  0  0  0  0
 10 11  2  0  0  0  0
 10 12  1  0  0  0  0
 12 13  1  0  0  0  0
 13 14  2  0  0  0  0
 14 15  1  0  0  0  0
 15 16  1  0  0  0  0
 15 17  2  0  0  0  0
 17 18  1  0  0  0  0
 12 18  2  0  0  0  0
M  END
>  <Catalog ID>
Z111456674

>  <Plate_ID>
2026997-X50-01

>  <Well>
G05

>  <V, µL>
50

>  <Conc, mM>
10

>  <Formula>
C14H9FO3

>  <MW>
244.2179

>  <Purity>
98

>  <PO>
5A-64168

>  <MW_salt>
0

>  <Stereochem.data>
Achiral

>  <Geometric.isomer>
None

>  <Chemical name>
2-(4-fluorobenzoyl)benzoic acid

>  <ClogP>
2,557

>  <logS>
-4,18

>  <HBD>
1

>  <HBA>
3

>  <TPSA>
54,37

>  <RotBonds>
3

$$$$

  Mrv1925 04172511382D          

 11 11  0  0  0  0            999 V2000
    0.7145    2.0625    0.0000 C   0  0  0  0  0  0  0  0  0  0  0  0
    0.7145    1.2375    0.0000 C   0  0  0  0  0  0  0  0  0  0  0  0
    1.4289    0.8250    0.0000 C   0  0  0  0  0  0  0  0  0  0  0  0
    1.4289   -0.0000    0.0000 C   0  0  0  0  0  0  0  0  0  0  0  0
    0.7145   -0.4125    0.0000 C   0  0  0  0  0  0  0  0  0  0  0  0
    0.0000    0.0000    0.0000 C   0  0  0  0  0  0  0  0  0  0  0  0
   -0.7145   -0.4125    0.0000 N   0  0  0  0  0  0  0  0  0  0  0  0
    0.0000    0.8250    0.0000 C   0  0  0  0  0  0  0  0  0  0  0  0
   -0.7145    1.2375    0.0000 C   0  0  0  0  0  0  0  0  0  0  0  0
   -1.4289    0.8250    0.0000 O   0  0  0  0  0  0  0  0  0  0  0  0
   -0.7145    2.0625    0.0000 O   0  0  0  0  0  0  0  0  0  0  0  0
  1  2  1  0  0  0  0
  2  3  1  0  0  0  0
  3  4  2  0  0  0  0
  4  5  1  0  0  0  0
  5  6  2  0  0  0  0
  6  7  1  0  0  0  0
  6  8  1  0  0  0  0
  2  8  2  0  0  0  0
  8  9  1  0  0  0  0
  9 10  2  0  0  0  0
  9 11  1  0  0  0  0
M  END
>  <Catalog ID>
Z802851752

>  <Plate_ID>
2026997-X50-01

>  <Well>
H05

>  <V, µL>
50

>  <Conc, mM>
10

>  <Formula>
C8H9NO2

>  <MW>
151.1626

>  <Purity>
100

>  <PO>
5A-64168

>  <MW_salt>
0

>  <Stereochem.data>
Achiral

>  <Geometric.isomer>
None

>  <Chemical name>
2-amino-6-methylbenzoic acid

>  <ClogP>
1,407

>  <logS>
-1,86

>  <HBD>
2

>  <HBA>
3

>  <TPSA>
63,32

>  <RotBonds>
1

$$$$

  Mrv1925 04172511382D          

 14 16  0  0  0  0            999 V2000
   -1.4407   -0.2854    0.0000 C   0  0  0  0  0  0  0  0  0  0  0  0
   -0.6561   -0.0305    0.0000 N   0  0  0  0  0  0  0  0  0  0  0  0
   -0.1712   -0.6979    0.0000 C   0  0  0  0  0  0  0  0  0  0  0  0
   -0.6561   -1.3654    0.0000 C   0  0  0  0  0  0  0  0  0  0  0  0
   -1.4407   -1.1104    0.0000 S   0  0  0  0  0  0  0  0  0  0  0  0
    0.6538   -0.6979    0.0000 C   0  0  0  0  0  0  0  0  0  0  0  0
    1.1387   -0.0305    0.0000 N   0  0  0  0  0  0  0  0  0  0  0  0
    1.9233   -0.2854    0.0000 C   0  0  0  0  0  0  0  0  0  0  0  0
    2.6378    0.1271    0.0000 C   0  0  0  0  0  0  0  0  0  0  0  0
    3.3523   -0.2854    0.0000 C   0  0  0  0  0  0  0  0  0  0  0  0
    3.3523   -1.1104    0.0000 C   0  0  0  0  0  0  0  0  0  0  0  0
    2.6378   -1.5229    0.0000 C   0  0  0  0  0  0  0  0  0  0  0  0
    1.9233   -1.1104    0.0000 C   0  0  0  0  0  0  0  0  0  0  0  0
    1.1387   -1.3654    0.0000 N   0  0  0  0  0  0  0  0  0  0  0  0
  1  2  2  0  0  0  0
  2  3  1  0  0  0  0
  3  4  2  0  0  0  0
  4  5  1  0  0  0  0
  1  5  1  0  0  0  0
  3  6  1  0  0  0  0
  6  7  2  0  0  0  0
  7  8  1  0  0  0  0
  8  9  1  0  0  0  0
  9 10  2  0  0  0  0
 10 11  1  0  0  0  0
 11 12  2  0  0  0  0
 12 13  1  0  0  0  0
  8 13  2  0  0  0  0
 13 14  1  0  0  0  0
  6 14  1  0  0  0  0
M  END
>  <Catalog ID>
Z104480436

>  <Plate_ID>
2026997-X50-01

>  <Well>
A06

>  <V, µL>
50

>  <Conc, mM>
10

>  <Formula>
C10H7N3S

>  <MW>
201.2477

>  <Purity>
100

>  <PO>
5A-64168

>  <MW_salt>
0

>  <Stereochem.data>
Achiral

>  <Geometric.isomer>
None

>  <Chemical name>
2-(1,3-thiazol-4-yl)-1H-1,3-benzodiazole

>  <ClogP>
2,358

>  <logS>
-3,19

>  <HBD>
1

>  <HBA>
2

>  <TPSA>
41,57

>  <RotBonds>
1

$$$$

  Mrv1925 04172511382D          

 12 12  0  0  0  0            999 V2000
    0.0000    2.4750    0.0000 C   0  0  0  0  0  0  0  0  0  0  0  0
    0.7145    2.0625    0.0000 C   0  0  0  0  0  0  0  0  0  0  0  0
    0.7145    1.2375    0.0000 C   0  0  0  0  0  0  0  0  0  0  0  0
    1.4289    0.8250    0.0000 C   0  0  0  0  0  0  0  0  0  0  0  0
    1.4289   -0.0000    0.0000 C   0  0  0  0  0  0  0  0  0  0  0  0
    0.7145   -0.4125    0.0000 C   0  0  0  0  0  0  0  0  0  0  0  0
    0.0000    0.0000    0.0000 C   0  0  0  0  0  0  0  0  0  0  0  0
    0.0000    0.8250    0.0000 C   0  0  0  0  0  0  0  0  0  0  0  0
    0.7145   -1.2375    0.0000 S   0  0  0  0  0  0  0  0  0  0  0  0
    0.7145   -2.0625    0.0000 N   0  0  0  0  0  0  0  0  0  0  0  0
   -0.1105   -1.2375    0.0000 O   0  0  0  0  0  0  0  0  0  0  0  0
    1.5395   -1.2375    0.0000 O   0  0  0  0  0  0  0  0  0  0  0  0
  1  2  1  0  0  0  0
  2  3  1  0  0  0  0
  3  4  1  0  0  0  0
  4  5  2  0  0  0  0
  5  6  1  0  0  0  0
  6  7  2  0  0  0  0
  7  8  1  0  0  0  0
  3  8  2  0  0  0  0
  6  9  1  0  0  0  0
  9 10  1  0  0  0  0
  9 11  2  0  0  0  0
  9 12  2  0  0  0  0
M  END
>  <Catalog ID>
Z57902253

>  <Plate_ID>
2026997-X50-01

>  <Well>
B06

>  <V, µL>
50

>  <Conc, mM>
10

>  <Formula>
C8H11NO2S

>  <MW>
185.2434

>  <Purity>
100

>  <PO>
5A-64168

>  <MW_salt>
0

>  <Stereochem.data>
Achiral

>  <Geometric.isomer>
None

>  <Chemical name>
4-ethylbenzene-1-sulfonamide

>  <ClogP>
1,333

>  <logS>
-2,37

>  <HBD>
1

>  <HBA>
2

>  <TPSA>
60,16

>  <RotBonds>
2

$$$$

  Mrv1925 04172511382D          

 15 16  0  0  0  0            999 V2000
    4.7812    1.9354    0.0000 C   0  0  0  0  0  0  0  0  0  0  0  0
    4.0668    2.3479    0.0000 O   0  0  0  0  0  0  0  0  0  0  0  0
    3.3523    1.9354    0.0000 C   0  0  0  0  0  0  0  0  0  0  0  0
    3.3523    1.1104    0.0000 C   0  0  0  0  0  0  0  0  0  0  0  0
    2.6378    0.6979    0.0000 C   0  0  0  0  0  0  0  0  0  0  0  0
    1.9233    1.1104    0.0000 C   0  0  0  0  0  0  0  0  0  0  0  0
    1.1387    0.8555    0.0000 N   0  0  0  0  0  0  0  0  0  0  0  0
    0.6538    1.5229    0.0000 C   0  0  0  0  0  0  0  0  0  0  0  0
    1.1387    2.1904    0.0000 C   0  0  0  0  0  0  0  0  0  0  0  0
    0.8838    2.9750    0.0000 C   0  0  0  0  0  0  0  0  0  0  0  0
    1.4358    3.5881    0.0000 C   0  0  0  0  0  0  0  0  0  0  0  0
    1.1809    4.3727    0.0000 O   0  0  0  0  0  0  0  0  0  0  0  0
    2.2428    3.4166    0.0000 O   0  0  0  0  0  0  0  0  0  0  0  0
    1.9233    1.9354    0.0000 C   0  0  0  0  0  0  0  0  0  0  0  0
    2.6378    2.3479    0.0000 C   0  0  0  0  0  0  0  0  0  0  0  0
  1  2  1  0  0  0  0
  2  3  1  0  0  0  0
  3  4  1  0  0  0  0
  4  5  2  0  0  0  0
  5  6  1  0  0  0  0
  6  7  1  0  0  0  0
  7  8  1  0  0  0  0
  8  9  2  0  0  0  0
  9 10  1  0  0  0  0
 10 11  1  0  0  0  0
 11 12  2  0  0  0  0
 11 13  1  0  0  0  0
  9 14  1  0  0  0  0
  6 14  2  0  0  0  0
 14 15  1  0  0  0  0
  3 15  2  0  0  0  0
M  END
>  <Catalog ID>
Z385472506

>  <Plate_ID>
2026997-X50-01

>  <Well>
C06

>  <V, µL>
50

>  <Conc, mM>
10

>  <Formula>
C11H11NO3

>  <MW>
205.2099

>  <Purity>
100

>  <PO>
5A-64168

>  <MW_salt>
0

>  <Stereochem.data>
Achiral

>  <Geometric.isomer>
None

>  <Chemical name>
2-(5-methoxy-1H-indol-3-yl)acetic acid

>  <ClogP>
1,425

>  <logS>
-1,89

>  <HBD>
2

>  <HBA>
3

>  <TPSA>
62,32

>  <RotBonds>
3

$$$$

  Mrv1925 04172511382D          

 13 15  0  0  0  0            999 V2000
    1.8226   -0.6406    0.0000 O   0  0  0  0  0  0  0  0  0  0  0  0
    1.3377    0.0269    0.0000 C   0  0  0  0  0  0  0  0  0  0  0  0
    0.5127    0.0269    0.0000 N   0  0  0  0  0  0  0  0  0  0  0  0
    0.2578    0.8115    0.0000 C   0  0  0  0  0  0  0  0  0  0  0  0
   -0.4959    1.1470    0.0000 C   0  0  0  0  0  0  0  0  0  0  0  0
   -0.5821    1.9675    0.0000 C   0  0  0  0  0  0  0  0  0  0  0  0
    0.0853    2.4525    0.0000 C   0  0  0  0  0  0  0  0  0  0  0  0
    0.8390    2.1169    0.0000 C   0  0  0  0  0  0  0  0  0  0  0  0
    1.7651    2.4525    0.0000 C   0  0  0  0  0  0  0  0  0  0  0  0
    2.4326    1.9675    0.0000 C   0  0  0  0  0  0  0  0  0  0  0  0
    2.3463    1.1470    0.0000 C   0  0  0  0  0  0  0  0  0  0  0  0
    1.5926    0.8115    0.0000 C   0  0  0  0  0  0  0  0  0  0  0  0
    0.9252    1.2964    0.0000 C   0  0  0  0  0  0  0  0  0  0  0  0
  1  2  2  0  0  0  0
  2  3  1  0  0  0  0
  3  4  1  0  0  0  0
  4  5  1  0  0  0  0
  5  6  2  0  0  0  0
  6  7  1  0  0  0  0
  7  8  2  0  0  0  0
  8  9  1  0  0  0  0
  9 10  2  0  0  0  0
 10 11  1  0  0  0  0
 11 12  2  0  0  0  0
  2 12  1  0  0  0  0
 12 13  1  0  0  0  0
  4 13  2  0  0  0  0
  8 13  1  0  0  0  0
M  END
>  <Catalog ID>
Z56899189

>  <Plate_ID>
2026997-X50-01

>  <Well>
D06

>  <V, µL>
50

>  <Conc, mM>
10

>  <Formula>
C11H7NO

>  <MW>
169.1794

>  <Purity>
100

>  <PO>
5A-64168

>  <MW_salt>
0

>  <Stereochem.data>
Achiral

>  <Geometric.isomer>
None

>  <Chemical name>
2-azatricyclo[6.3.1.0,4,12]dodeca-1(12),4,6,8,10-pentaen-3-one

>  <ClogP>
1,802

>  <logS>
-3,53

>  <HBD>
1

>  <HBA>
1

>  <TPSA>
29,1

>  <RotBonds>
0

$$$$

  Mrv1925 04172511382D          

 12 12  0  0  0  0            999 V2000
    0.0000    2.4750    0.0000 C   0  0  0  0  0  0  0  0  0  0  0  0
    0.7145    2.0625    0.0000 N   0  0  0  0  0  0  0  0  0  0  0  0
    1.4289    2.4750    0.0000 C   0  0  0  0  0  0  0  0  0  0  0  0
    0.7145    1.2375    0.0000 C   0  0  0  0  0  0  0  0  0  0  0  0
    1.4289    0.8250    0.0000 C   0  0  0  0  0  0  0  0  0  0  0  0
    1.4289   -0.0000    0.0000 C   0  0  0  0  0  0  0  0  0  0  0  0
    0.7145   -0.4125    0.0000 C   0  0  0  0  0  0  0  0  0  0  0  0
    0.0000    0.0000    0.0000 C   0  0  0  0  0  0  0  0  0  0  0  0
    0.0000    0.8250    0.0000 N   0  0  0  0  0  0  0  0  0  0  0  0
    0.7145   -1.2375    0.0000 C   0  0  0  0  0  0  0  0  0  0  0  0
    1.4289   -1.6500    0.0000 O   0  0  0  0  0  0  0  0  0  0  0  0
   -0.0000   -1.6500    0.0000 O   0  0  0  0  0  0  0  0  0  0  0  0
  1  2  1  0  0  0  0
  2  3  1  0  0  0  0
  2  4  1  0  0  0  0
  4  5  1  0  0  0  0
  5  6  2  0  0  0  0
  6  7  1  0  0  0  0
  7  8  2  0  0  0  0
  8  9  1  0  0  0  0
  4  9  2  0  0  0  0
  7 10  1  0  0  0  0
 10 11  2  0  0  0  0
 10 12  1  0  0  0  0
M  END
>  <Catalog ID>
Z330799458

>  <Plate_ID>
2026997-X50-01

>  <Well>
E06

>  <V, µL>
50

>  <Conc, mM>
10

>  <Formula>
C8H10N2O2

>  <MW>
166.1772

>  <Purity>
100

>  <PO>
5A-64168

>  <MW_salt>
0

>  <Stereochem.data>
Achiral

>  <Geometric.isomer>
None

>  <Chemical name>
6-(dimethylamino)pyridine-3-carboxylic acid

>  <ClogP>
1,514

>  <logS>
-0,83

>  <HBD>
1

>  <HBA>
4

>  <TPSA>
53,43

>  <RotBonds>
2

$$$$

  Mrv1925 04172511382D          

 15 16  0  0  0  0            999 V2000
    0.7145   -0.4125    0.0000 C   0  0  0  0  0  0  0  0  0  0  0  0
    0.7145   -1.2375    0.0000 N   0  0  0  0  0  0  0  0  0  0  0  0
    1.3819   -1.7224    0.0000 N   0  0  0  0  0  0  0  0  0  0  0  0
    1.1270   -2.5070    0.0000 C   0  0  0  0  0  0  0  0  0  0  0  0
    0.3020   -2.5070    0.0000 C   0  0  0  0  0  0  0  0  0  0  0  0
   -0.1830   -3.1745    0.0000 C   0  0  0  0  0  0  0  0  0  0  0  0
    0.1526   -3.9282    0.0000 O   0  0  0  0  0  0  0  0  0  0  0  0
   -1.0034   -3.0882    0.0000 O   0  0  0  0  0  0  0  0  0  0  0  0
    0.0470   -1.7224    0.0000 C   0  0  0  0  0  0  0  0  0  0  0  0
   -0.7376   -1.4675    0.0000 C   0  0  0  0  0  0  0  0  0  0  0  0
   -1.3507   -2.0195    0.0000 C   0  0  0  0  0  0  0  0  0  0  0  0
   -2.1353   -1.7646    0.0000 C   0  0  0  0  0  0  0  0  0  0  0  0
   -2.3068   -0.9576    0.0000 C   0  0  0  0  0  0  0  0  0  0  0  0
   -1.6937   -0.4056    0.0000 C   0  0  0  0  0  0  0  0  0  0  0  0
   -0.9091   -0.6605    0.0000 C   0  0  0  0  0  0  0  0  0  0  0  0
  1  2  1  0  0  0  0
  2  3  1  0  0  0  0
  3  4  2  0  0  0  0
  4  5  1  0  0  0  0
  5  6  1  0  0  0  0
  6  7  2  0  0  0  0
  6  8  1  0  0  0  0
  5  9  2  0  0  0  0
  2  9  1  0  0  0  0
  9 10  1  0  0  0  0
 10 11  1  0  0  0  0
 11 12  2  0  0  0  0
 12 13  1  0  0  0  0
 13 14  2  0  0  0  0
 14 15  1  0  0  0  0
 10 15  2  0  0  0  0
M  END
>  <Catalog ID>
Z808584750

>  <Plate_ID>
2026997-X50-01

>  <Well>
F06

>  <V, µL>
50

>  <Conc, mM>
10

>  <Formula>
C11H10N2O2

>  <MW>
202.2093

>  <Purity>
96.45

>  <PO>
5A-64168

>  <MW_salt>
0

>  <Stereochem.data>
Achiral

>  <Geometric.isomer>
None

>  <Chemical name>
1-methyl-5-phenyl-1H-pyrazole-4-carboxylic acid

>  <ClogP>
1,559

>  <logS>
-1,9

>  <HBD>
1

>  <HBA>
3

>  <TPSA>
55,12

>  <RotBonds>
2

$$$$

  Mrv1925 04172511382D          

 11 12  0  0  0  0            999 V2000
   -0.1712   -0.6979    0.0000 O   0  0  0  0  0  0  0  0  0  0  0  0
    0.6538   -0.6979    0.0000 C   0  0  0  0  0  0  0  0  0  0  0  0
    1.1387   -0.0305    0.0000 C   0  0  0  0  0  0  0  0  0  0  0  0
    1.9233   -0.2854    0.0000 C   0  0  0  0  0  0  0  0  0  0  0  0
    2.6378    0.1271    0.0000 C   0  0  0  0  0  0  0  0  0  0  0  0
    3.3523   -0.2854    0.0000 C   0  0  0  0  0  0  0  0  0  0  0  0
    3.3523   -1.1104    0.0000 C   0  0  0  0  0  0  0  0  0  0  0  0
    4.0668   -1.5229    0.0000 Cl  0  0  0  0  0  0  0  0  0  0  0  0
    2.6378   -1.5229    0.0000 C   0  0  0  0  0  0  0  0  0  0  0  0
    1.9233   -1.1104    0.0000 C   0  0  0  0  0  0  0  0  0  0  0  0
    1.1387   -1.3654    0.0000 N   0  0  0  0  0  0  0  0  0  0  0  0
  1  2  2  0  0  0  0
  2  3  1  0  0  0  0
  3  4  1  0  0  0  0
  4  5  1  0  0  0  0
  5  6  2  0  0  0  0
  6  7  1  0  0  0  0
  7  8  1  0  0  0  0
  7  9  2  0  0  0  0
  9 10  1  0  0  0  0
  4 10  2  0  0  0  0
 10 11  1  0  0  0  0
  2 11  1  0  0  0  0
M  END
>  <Catalog ID>
Z56922083

>  <Plate_ID>
2026997-X50-01

>  <Well>
G06

>  <V, µL>
50

>  <Conc, mM>
10

>  <Formula>
C8H6ClNO

>  <MW>
167.5923

>  <Purity>
100

>  <PO>
5A-64168

>  <MW_salt>
0

>  <Stereochem.data>
Achiral

>  <Geometric.isomer>
None

>  <Chemical name>
6-chloro-2,3-dihydro-1H-indol-2-one

>  <ClogP>
1,678

>  <logS>
-1,93

>  <HBD>
1

>  <HBA>
1

>  <TPSA>
29,1

>  <RotBonds>
0

$$$$

  Mrv1925 04172511382D          

 12 13  0  0  0  0            999 V2000
    4.0668    3.1729    0.0000 O   0  0  0  0  0  0  0  0  0  0  0  0
    4.0668    2.3479    0.0000 C   0  0  0  0  0  0  0  0  0  0  0  0
    4.7812    1.9354    0.0000 O   0  0  0  0  0  0  0  0  0  0  0  0
    3.3523    1.9354    0.0000 C   0  0  0  0  0  0  0  0  0  0  0  0
    3.3523    1.1104    0.0000 C   0  0  0  0  0  0  0  0  0  0  0  0
    2.6378    0.6979    0.0000 C   0  0  0  0  0  0  0  0  0  0  0  0
    1.9233    1.1104    0.0000 C   0  0  0  0  0  0  0  0  0  0  0  0
    1.1387    0.8555    0.0000 O   0  0  0  0  0  0  0  0  0  0  0  0
    0.6538    1.5229    0.0000 C   0  0  0  0  0  0  0  0  0  0  0  0
    1.1387    2.1904    0.0000 O   0  0  0  0  0  0  0  0  0  0  0  0
    1.9233    1.9354    0.0000 C   0  0  0  0  0  0  0  0  0  0  0  0
    2.6378    2.3479    0.0000 C   0  0  0  0  0  0  0  0  0  0  0  0
  1  2  2  0  0  0  0
  2  3  1  0  0  0  0
  2  4  1  0  0  0  0
  4  5  2  0  0  0  0
  5  6  1  0  0  0  0
  6  7  2  0  0  0  0
  7  8  1  0  0  0  0
  8  9  1  0  0  0  0
  9 10  1  0  0  0  0
 10 11  1  0  0  0  0
  7 11  1  0  0  0  0
 11 12  2  0  0  0  0
  4 12  1  0  0  0  0
M  END
>  <Catalog ID>
Z104476884

>  <Plate_ID>
2026997-X50-01

>  <Well>
H06

>  <V, µL>
50

>  <Conc, mM>
10

>  <Formula>
C8H6O4

>  <MW>
166.1308

>  <Purity>
95

>  <PO>
5A-64168

>  <MW_salt>
0

>  <Stereochem.data>
Achiral

>  <Geometric.isomer>
None

>  <Chemical name>
1,3-dioxaindane-5-carboxylic acid

>  <ClogP>
1,972

>  <logS>
-2,12

>  <HBD>
1

>  <HBA>
4

>  <TPSA>
55,76

>  <RotBonds>
1

$$$$

  Mrv1925 04172511382D          

 11 11  0  0  0  0            999 V2000
    0.0000    2.4750    0.0000 N   0  0  0  0  0  0  0  0  0  0  0  0
    0.7145    2.0625    0.0000 C   0  0  0  0  0  0  0  0  0  0  0  0
    1.4289    2.4750    0.0000 O   0  0  0  0  0  0  0  0  0  0  0  0
    0.7145    1.2375    0.0000 C   0  0  0  0  0  0  0  0  0  0  0  0
    1.4289    0.8250    0.0000 C   0  0  0  0  0  0  0  0  0  0  0  0
    1.4289   -0.0000    0.0000 C   0  0  0  0  0  0  0  0  0  0  0  0
    2.1434   -0.4125    0.0000 Cl  0  0  0  0  0  0  0  0  0  0  0  0
    0.7145   -0.4125    0.0000 C   0  0  0  0  0  0  0  0  0  0  0  0
    0.0000    0.0000    0.0000 C   0  0  0  0  0  0  0  0  0  0  0  0
    0.0000    0.8250    0.0000 C   0  0  0  0  0  0  0  0  0  0  0  0
   -0.7145    1.2375    0.0000 N   0  0  0  0  0  0  0  0  0  0  0  0
  1  2  1  0  0  0  0
  2  3  2  0  0  0  0
  2  4  1  0  0  0  0
  4  5  1  0  0  0  0
  5  6  2  0  0  0  0
  6  7  1  0  0  0  0
  6  8  1  0  0  0  0
  8  9  2  0  0  0  0
  9 10  1  0  0  0  0
  4 10  2  0  0  0  0
 10 11  1  0  0  0  0
M  END
>  <Catalog ID>
Z239125320

>  <Plate_ID>
2026997-X50-01

>  <Well>
A07

>  <V, µL>
50

>  <Conc, mM>
10

>  <Formula>
C7H7ClN2O

>  <MW>
170.5963

>  <Purity>
100

>  <PO>
5A-64168

>  <MW_salt>
0

>  <Stereochem.data>
Achiral

>  <Geometric.isomer>
None

>  <Chemical name>
2-amino-5-chlorobenzamide

>  <ClogP>
1,209

>  <logS>
-2,17

>  <HBD>
2

>  <HBA>
2

>  <TPSA>
69,11

>  <RotBonds>
1

$$$$

  Mrv1925 04172511382D          

 12 12  0  0  0  0            999 V2000
    0.0000    2.4750    0.0000 O   0  0  0  0  0  0  0  0  0  0  0  0
    0.7145    2.0625    0.0000 C   0  0  0  0  0  0  0  0  0  0  0  0
    1.4289    2.4750    0.0000 O   0  0  0  0  0  0  0  0  0  0  0  0
    0.7145    1.2375    0.0000 C   0  0  0  0  0  0  0  0  0  0  0  0
    1.4289    0.8250    0.0000 C   0  0  0  0  0  0  0  0  0  0  0  0
    1.4289   -0.0000    0.0000 C   0  0  0  0  0  0  0  0  0  0  0  0
    0.7145   -0.4125    0.0000 C   0  0  0  0  0  0  0  0  0  0  0  0
    0.0000    0.0000    0.0000 N   0  0  0  0  0  0  0  0  0  0  0  0
    0.0000    0.8250    0.0000 C   0  0  0  0  0  0  0  0  0  0  0  0
   -0.7145    1.2375    0.0000 C   0  0  0  0  0  0  0  0  0  0  0  0
   -0.7145    2.0625    0.0000 O   0  0  0  0  0  0  0  0  0  0  0  0
   -1.4289    0.8250    0.0000 O   0  0  0  0  0  0  0  0  0  0  0  0
  1  2  2  0  0  0  0
  2  3  1  0  0  0  0
  2  4  1  0  0  0  0
  4  5  1  0  0  0  0
  5  6  2  0  0  0  0
  6  7  1  0  0  0  0
  7  8  2  0  0  0  0
  8  9  1  0  0  0  0
  4  9  2  0  0  0  0
  9 10  1  0  0  0  0
 10 11  2  0  0  0  0
 10 12  1  0  0  0  0
M  END
>  <Catalog ID>
Z57160166

>  <Plate_ID>
2026997-X50-01

>  <Well>
B07

>  <V, µL>
50

>  <Conc, mM>
10

>  <Formula>
C7H5NO4

>  <MW>
167.1189

>  <Purity>
100

>  <PO>
5A-64168

>  <MW_salt>
0

>  <Stereochem.data>
Achiral

>  <Geometric.isomer>
None

>  <Chemical name>
pyridine-2,3-dicarboxylic acid

>  <ClogP>
-0,042

>  <logS>
-0,78

>  <HBD>
2

>  <HBA>
5

>  <TPSA>
87,49

>  <RotBonds>
2

$$$$

  Mrv1925 04172511382D          

 13 14  0  0  0  0            999 V2000
    2.0367   -0.4741    0.0000 N   0  0  0  0  0  0  0  0  0  0  0  0
    2.0367   -1.2991    0.0000 C   0  0  0  0  0  0  0  0  0  0  0  0
    2.7041   -1.7840    0.0000 N   0  0  0  0  0  0  0  0  0  0  0  0
    2.4492   -2.5687    0.0000 C   0  0  0  0  0  0  0  0  0  0  0  0
    1.6242   -2.5687    0.0000 C   0  0  0  0  0  0  0  0  0  0  0  0
    1.1393   -3.2361    0.0000 C   0  0  0  0  0  0  0  0  0  0  0  0
    0.3188   -3.1499    0.0000 C   0  0  0  0  0  0  0  0  0  0  0  0
   -0.1661   -3.8173    0.0000 C   0  0  0  0  0  0  0  0  0  0  0  0
   -0.9866   -3.7311    0.0000 C   0  0  0  0  0  0  0  0  0  0  0  0
   -1.3222   -2.9774    0.0000 C   0  0  0  0  0  0  0  0  0  0  0  0
   -0.8372   -2.3099    0.0000 C   0  0  0  0  0  0  0  0  0  0  0  0
   -0.0168   -2.3962    0.0000 C   0  0  0  0  0  0  0  0  0  0  0  0
    1.3693   -1.7840    0.0000 S   0  0  0  0  0  0  0  0  0  0  0  0
  1  2  1  0  0  0  0
  2  3  2  0  0  0  0
  3  4  1  0  0  0  0
  4  5  2  0  0  0  0
  5  6  1  0  0  0  0
  6  7  1  0  0  0  0
  7  8  1  0  0  0  0
  8  9  2  0  0  0  0
  9 10  1  0  0  0  0
 10 11  2  0  0  0  0
 11 12  1  0  0  0  0
  7 12  2  0  0  0  0
  5 13  1  0  0  0  0
  2 13  1  0  0  0  0
M  END
>  <Catalog ID>
Z57040472

>  <Plate_ID>
2026997-X50-01

>  <Well>
C07

>  <V, µL>
50

>  <Conc, mM>
10

>  <Formula>
C10H10N2S

>  <MW>
190.2648

>  <Purity>
100

>  <PO>
5A-64168

>  <MW_salt>
0

>  <Stereochem.data>
Achiral

>  <Geometric.isomer>
None

>  <Chemical name>
5-benzyl-1,3-thiazol-2-amine

>  <ClogP>
2,296

>  <logS>
-2,84

>  <HBD>
1

>  <HBA>
2

>  <TPSA>
38,91

>  <RotBonds>
2

$$$$

  Mrv1925 04172511382D          

  9  9  0  0  0  0            999 V2000
    0.5678    2.7643    0.0000 N   0  0  0  0  0  0  0  0  0  0  0  0
    0.5678    1.9393    0.0000 S   0  0  0  0  0  0  0  0  0  0  0  0
   -0.2572    1.9393    0.0000 O   0  0  0  0  0  0  0  0  0  0  0  0
    1.3928    1.9393    0.0000 O   0  0  0  0  0  0  0  0  0  0  0  0
    0.5678    1.1143    0.0000 C   0  0  0  0  0  0  0  0  0  0  0  0
    1.2352    0.6294    0.0000 C   0  0  0  0  0  0  0  0  0  0  0  0
    0.9803   -0.1553    0.0000 C   0  0  0  0  0  0  0  0  0  0  0  0
    0.1553   -0.1553    0.0000 C   0  0  0  0  0  0  0  0  0  0  0  0
   -0.0997    0.6294    0.0000 S   0  0  0  0  0  0  0  0  0  0  0  0
  1  2  1  0  0  0  0
  2  3  2  0  0  0  0
  2  4  2  0  0  0  0
  2  5  1  0  0  0  0
  5  6  2  0  0  0  0
  6  7  1  0  0  0  0
  7  8  2  0  0  0  0
  8  9  1  0  0  0  0
  5  9  1  0  0  0  0
M  END
>  <Catalog ID>
Z45415560

>  <Plate_ID>
2026997-X50-01

>  <Well>
D07

>  <V, µL>
50

>  <Conc, mM>
10

>  <Formula>
C4H5NO2S2

>  <MW>
163.218

>  <Purity>
95

>  <PO>
5A-64168

>  <MW_salt>
0

>  <Stereochem.data>
Achiral

>  <Geometric.isomer>
None

>  <Chemical name>
thiophene-2-sulfonamide

>  <ClogP>
0,179

>  <logS>
-1,62

>  <HBD>
1

>  <HBA>
2

>  <TPSA>
60,16

>  <RotBonds>
1

$$$$

  Mrv1925 04172511382D          

 10 10  0  0  0  0            999 V2000
    0.7145    2.0625    0.0000 C   0  0  0  0  0  0  0  0  0  0  0  0
    0.7145    1.2375    0.0000 C   0  0  0  0  0  0  0  0  0  0  0  0
    1.4289    0.8250    0.0000 C   0  0  0  0  0  0  0  0  0  0  0  0
    1.4289   -0.0000    0.0000 C   0  0  0  0  0  0  0  0  0  0  0  0
    0.7145   -0.4125    0.0000 C   0  0  0  0  0  0  0  0  0  0  0  0
    0.7145   -1.2375    0.0000 O   0  0  0  0  0  0  0  0  0  0  0  0
    0.0000    0.0000    0.0000 C   0  0  0  0  0  0  0  0  0  0  0  0
   -0.7145   -0.4125    0.0000 C   0  0  0  0  0  0  0  0  0  0  0  0
   -1.4289    0.0000    0.0000 O   0  0  0  0  0  0  0  0  0  0  0  0
    0.0000    0.8250    0.0000 N   0  0  0  0  0  0  0  0  0  0  0  0
  1  2  1  0  0  0  0
  2  3  1  0  0  0  0
  3  4  2  0  0  0  0
  4  5  1  0  0  0  0
  5  6  1  0  0  0  0
  5  7  2  0  0  0  0
  7  8  1  0  0  0  0
  8  9  1  0  0  0  0
  7 10  1  0  0  0  0
  2 10  2  0  0  0  0
M  END
>  <Catalog ID>
Z1104852895

>  <Plate_ID>
2026997-X50-01

>  <Well>
E07

>  <V, µL>
50

>  <Conc, mM>
10

>  <Formula>
C7H9NO2

>  <MW>
139.1519

>  <Purity>
95

>  <PO>
5A-64168

>  <MW_salt>
0

>  <Stereochem.data>
Achiral

>  <Geometric.isomer>
None

>  <Chemical name>
2-(hydroxymethyl)-6-methylpyridin-3-ol

>  <ClogP>
0,793

>  <logS>
0,18

>  <HBD>
2

>  <HBA>
3

>  <TPSA>
53,35

>  <RotBonds>
1

$$$$

  Mrv1925 04172511382D          

 13 13  0  0  0  0            999 V2000
    1.4289    2.4750    0.0000 C   0  0  0  0  0  0  0  0  0  0  0  0
    0.7145    2.0625    0.0000 O   0  0  0  0  0  0  0  0  0  0  0  0
    0.7145    1.2375    0.0000 C   0  0  0  0  0  0  0  0  0  0  0  0
    1.4289    0.8250    0.0000 C   0  0  0  0  0  0  0  0  0  0  0  0
    1.4289   -0.0000    0.0000 C   0  0  0  0  0  0  0  0  0  0  0  0
    0.7145   -0.4125    0.0000 C   0  0  0  0  0  0  0  0  0  0  0  0
    0.0000    0.0000    0.0000 C   0  0  0  0  0  0  0  0  0  0  0  0
   -0.7145   -0.4125    0.0000 O   0  0  0  0  0  0  0  0  0  0  0  0
   -0.7145   -1.2375    0.0000 C   0  0  0  0  0  0  0  0  0  0  0  0
    0.0000    0.8250    0.0000 C   0  0  0  0  0  0  0  0  0  0  0  0
   -0.7145    1.2375    0.0000 C   0  0  0  0  0  0  0  0  0  0  0  0
   -0.7145    2.0625    0.0000 O   0  0  0  0  0  0  0  0  0  0  0  0
   -1.4289    0.8250    0.0000 O   0  0  0  0  0  0  0  0  0  0  0  0
  1  2  1  0  0  0  0
  2  3  1  0  0  0  0
  3  4  2  0  0  0  0
  4  5  1  0  0  0  0
  5  6  2  0  0  0  0
  6  7  1  0  0  0  0
  7  8  1  0  0  0  0
  8  9  1  0  0  0  0
  7 10  2  0  0  0  0
  3 10  1  0  0  0  0
 10 11  1  0  0  0  0
 11 12  2  0  0  0  0
 11 13  1  0  0  0  0
M  END
>  <Catalog ID>
Z57915361

>  <Plate_ID>
2026997-X50-01

>  <Well>
F07

>  <V, µL>
50

>  <Conc, mM>
10

>  <Formula>
C9H10O4

>  <MW>
182.1733

>  <Purity>
98.21

>  <PO>
5A-64168

>  <MW_salt>
0

>  <Stereochem.data>
Achiral

>  <Geometric.isomer>
None

>  <Chemical name>
2,6-dimethoxybenzoic acid

>  <ClogP>
1,155

>  <logS>
-1,58

>  <HBD>
1

>  <HBA>
4

>  <TPSA>
55,76

>  <RotBonds>
3

$$$$

  Mrv1925 04172511382D          

 12 13  0  0  0  0            999 V2000
    0.7145   -2.8875    0.0000 O   0  0  0  0  0  0  0  0  0  0  0  0
    1.4289   -2.4750    0.0000 C   0  0  0  0  0  0  0  0  0  0  0  0
    1.4289   -1.6500    0.0000 C   0  0  0  0  0  0  0  0  0  0  0  0
    0.7145   -1.2375    0.0000 C   0  0  0  0  0  0  0  0  0  0  0  0
    0.7145   -0.4125    0.0000 C   0  0  0  0  0  0  0  0  0  0  0  0
    1.4289    0.0000    0.0000 C   0  0  0  0  0  0  0  0  0  0  0  0
    2.1434   -0.4125    0.0000 C   0  0  0  0  0  0  0  0  0  0  0  0
    2.8579    0.0000    0.0000 O   0  0  0  0  0  0  0  0  0  0  0  0
    3.5724   -0.4125    0.0000 C   0  0  0  0  0  0  0  0  0  0  0  0
    3.5724   -1.2375    0.0000 C   0  0  0  0  0  0  0  0  0  0  0  0
    2.8579   -1.6500    0.0000 O   0  0  0  0  0  0  0  0  0  0  0  0
    2.1434   -1.2375    0.0000 C   0  0  0  0  0  0  0  0  0  0  0  0
  1  2  1  0  0  0  0
  2  3  1  0  0  0  0
  3  4  1  0  0  0  0
  4  5  2  0  0  0  0
  5  6  1  0  0  0  0
  6  7  2  0  0  0  0
  7  8  1  0  0  0  0
  8  9  1  0  0  0  0
  9 10  1  0  0  0  0
 10 11  1  0  0  0  0
 11 12  1  0  0  0  0
  3 12  2  0  0  0  0
  7 12  1  0  0  0  0
M  END
>  <Catalog ID>
Z440625162

>  <Plate_ID>
2026997-X50-01

>  <Well>
G07

>  <V, µL>
50

>  <Conc, mM>
10

>  <Formula>
C9H10O3

>  <MW>
166.1739

>  <Purity>
95

>  <PO>
5A-64168

>  <MW_salt>
0

>  <Stereochem.data>
Achiral

>  <Geometric.isomer>
None

>  <Chemical name>
(2,3-dihydro-1,4-benzodioxin-5-yl)methanol

>  <ClogP>
1,028

>  <logS>
-1,45

>  <HBD>
1

>  <HBA>
3

>  <TPSA>
38,69

>  <RotBonds>
1

$$$$

  Mrv1925 04172511382D          

 13 14  0  0  0  0            999 V2000
    0.0768   -2.3215    0.0000 C   0  0  0  0  0  0  0  0  0  0  0  0
    0.8838   -2.1500    0.0000 C   0  0  0  0  0  0  0  0  0  0  0  0
    1.4358   -2.7631    0.0000 O   0  0  0  0  0  0  0  0  0  0  0  0
    1.1387   -1.3654    0.0000 C   0  0  0  0  0  0  0  0  0  0  0  0
    0.6538   -0.6979    0.0000 C   0  0  0  0  0  0  0  0  0  0  0  0
    1.1387   -0.0305    0.0000 N   0  0  0  0  0  0  0  0  0  0  0  0
    1.9233   -0.2854    0.0000 C   0  0  0  0  0  0  0  0  0  0  0  0
    2.6378    0.1271    0.0000 C   0  0  0  0  0  0  0  0  0  0  0  0
    2.6378    0.9521    0.0000 C   0  0  0  0  0  0  0  0  0  0  0  0
    3.3523   -0.2854    0.0000 C   0  0  0  0  0  0  0  0  0  0  0  0
    3.3523   -1.1104    0.0000 C   0  0  0  0  0  0  0  0  0  0  0  0
    2.6378   -1.5229    0.0000 C   0  0  0  0  0  0  0  0  0  0  0  0
    1.9233   -1.1104    0.0000 C   0  0  0  0  0  0  0  0  0  0  0  0
  1  2  1  0  0  0  0
  2  3  2  0  0  0  0
  2  4  1  0  0  0  0
  4  5  2  0  0  0  0
  5  6  1  0  0  0  0
  6  7  1  0  0  0  0
  7  8  2  0  0  0  0
  8  9  1  0  0  0  0
  8 10  1  0  0  0  0
 10 11  2  0  0  0  0
 11 12  1  0  0  0  0
 12 13  2  0  0  0  0
  4 13  1  0  0  0  0
  7 13  1  0  0  0  0
M  END
>  <Catalog ID>
Z1198233123

>  <Plate_ID>
2026997-X50-01

>  <Well>
H07

>  <V, µL>
50

>  <Conc, mM>
10

>  <Formula>
C11H11NO

>  <MW>
173.2111

>  <Purity>
100

>  <PO>
5A-64168

>  <MW_salt>
0

>  <Stereochem.data>
Achiral

>  <Geometric.isomer>
None

>  <Chemical name>
1-(7-methyl-1H-indol-3-yl)ethan-1-one

>  <ClogP>
2,478

>  <logS>
-2,84

>  <HBD>
1

>  <HBA>
1

>  <TPSA>
32,86

>  <RotBonds>
1

$$$$

  Mrv1925 04172511382D          

 12 13  0  0  0  0            999 V2000
    4.0668    3.1729    0.0000 O   0  0  0  0  0  0  0  0  0  0  0  0
    4.0668    2.3479    0.0000 C   0  0  0  0  0  0  0  0  0  0  0  0
    4.7812    1.9354    0.0000 O   0  0  0  0  0  0  0  0  0  0  0  0
    3.3523    1.9354    0.0000 C   0  0  0  0  0  0  0  0  0  0  0  0
    3.3523    1.1104    0.0000 C   0  0  0  0  0  0  0  0  0  0  0  0
    2.6378    0.6979    0.0000 C   0  0  0  0  0  0  0  0  0  0  0  0
    1.9233    1.1104    0.0000 C   0  0  0  0  0  0  0  0  0  0  0  0
    1.1387    0.8555    0.0000 C   0  0  0  0  0  0  0  0  0  0  0  0
    0.6538    1.5229    0.0000 C   0  0  0  0  0  0  0  0  0  0  0  0
    1.1387    2.1904    0.0000 N   0  0  0  0  0  0  0  0  0  0  0  0
    1.9233    1.9354    0.0000 C   0  0  0  0  0  0  0  0  0  0  0  0
    2.6378    2.3479    0.0000 C   0  0  0  0  0  0  0  0  0  0  0  0
  1  2  2  0  0  0  0
  2  3  1  0  0  0  0
  2  4  1  0  0  0  0
  4  5  2  0  0  0  0
  5  6  1  0  0  0  0
  6  7  2  0  0  0  0
  7  8  1  0  0  0  0
  8  9  2  0  0  0  0
  9 10  1  0  0  0  0
 10 11  1  0  0  0  0
  7 11  1  0  0  0  0
 11 12  2  0  0  0  0
  4 12  1  0  0  0  0
M  END
>  <Catalog ID>
Z385481296

>  <Plate_ID>
2026997-X50-01

>  <Well>
A08

>  <V, µL>
50

>  <Conc, mM>
10

>  <Formula>
C9H7NO2

>  <MW>
161.1574

>  <Purity>
100

>  <PO>
5A-64168

>  <MW_salt>
0

>  <Stereochem.data>
Achiral

>  <Geometric.isomer>
None

>  <Chemical name>
1H-indole-6-carboxylic acid

>  <ClogP>
2,067

>  <logS>
-2,41

>  <HBD>
2

>  <HBA>
2

>  <TPSA>
53,09

>  <RotBonds>
1

$$$$

  Mrv1925 04172511382D          

 12 13  0  0  0  0            999 V2000
    0.0000   -0.0000    0.0000 C   0  0  0  0  0  0  0  0  0  0  0  0
    0.7145   -0.4125    0.0000 N   0  0  0  0  0  0  0  0  0  0  0  0
    1.4289    0.0000    0.0000 C   0  0  0  0  0  0  0  0  0  0  0  0
    2.1434   -0.4125    0.0000 C   0  0  0  0  0  0  0  0  0  0  0  0
    2.8579    0.0000    0.0000 C   0  0  0  0  0  0  0  0  0  0  0  0
    3.5724   -0.4125    0.0000 C   0  0  0  0  0  0  0  0  0  0  0  0
    3.5724   -1.2375    0.0000 C   0  0  0  0  0  0  0  0  0  0  0  0
    2.8579   -1.6500    0.0000 C   0  0  0  0  0  0  0  0  0  0  0  0
    2.1434   -1.2375    0.0000 C   0  0  0  0  0  0  0  0  0  0  0  0
    1.4289   -1.6500    0.0000 N   0  0  0  0  0  0  0  0  0  0  0  0
    0.7145   -1.2375    0.0000 C   0  0  0  0  0  0  0  0  0  0  0  0
    0.0000   -1.6500    0.0000 O   0  0  0  0  0  0  0  0  0  0  0  0
  1  2  1  0  0  0  0
  2  3  1  0  0  0  0
  3  4  1  0  0  0  0
  4  5  1  0  0  0  0
  5  6  2  0  0  0  0
  6  7  1  0  0  0  0
  7  8  2  0  0  0  0
  8  9  1  0  0  0  0
  4  9  2  0  0  0  0
  9 10  1  0  0  0  0
 10 11  1  0  0  0  0
  2 11  1  0  0  0  0
 11 12  2  0  0  0  0
M  END
>  <Catalog ID>
Z104476152

>  <Plate_ID>
2026997-X50-01

>  <Well>
B08

>  <V, µL>
50

>  <Conc, mM>
10

>  <Formula>
C9H10N2O

>  <MW>
162.1885

>  <Purity>
98

>  <PO>
5A-64168

>  <MW_salt>
0

>  <Stereochem.data>
Achiral

>  <Geometric.isomer>
None

>  <Chemical name>
3-methyl-1,2,3,4-tetrahydroquinazolin-2-one

>  <ClogP>
1,033

>  <logS>
-1,59

>  <HBD>
1

>  <HBA>
1

>  <TPSA>
32,34

>  <RotBonds>
0

$$$$

  Mrv1925 04172511382D          

 13 14  0  0  0  0            999 V2000
    0.0000   -2.4750    0.0000 C   0  0  0  0  0  0  0  0  0  0  0  0
    0.0000   -1.6500    0.0000 C   0  0  0  0  0  0  0  0  0  0  0  0
    0.7145   -1.2375    0.0000 N   0  0  0  0  0  0  0  0  0  0  0  0
    0.7145   -0.4125    0.0000 C   0  0  0  0  0  0  0  0  0  0  0  0
    1.4289    0.0000    0.0000 C   0  0  0  0  0  0  0  0  0  0  0  0
    2.1434   -0.4125    0.0000 C   0  0  0  0  0  0  0  0  0  0  0  0
    2.8579    0.0000    0.0000 C   0  0  0  0  0  0  0  0  0  0  0  0
    2.8579    0.8250    0.0000 N   0  0  0  0  0  0  0  0  0  0  0  0
    3.5724   -0.4125    0.0000 C   0  0  0  0  0  0  0  0  0  0  0  0
    3.5724   -1.2375    0.0000 C   0  0  0  0  0  0  0  0  0  0  0  0
    2.8579   -1.6500    0.0000 C   0  0  0  0  0  0  0  0  0  0  0  0
    2.1434   -1.2375    0.0000 C   0  0  0  0  0  0  0  0  0  0  0  0
    1.4289   -1.6500    0.0000 C   0  0  0  0  0  0  0  0  0  0  0  0
  1  2  1  0  0  0  0
  2  3  1  0  0  0  0
  3  4  1  0  0  0  0
  4  5  1  0  0  0  0
  5  6  1  0  0  0  0
  6  7  2  0  0  0  0
  7  8  1  0  0  0  0
  7  9  1  0  0  0  0
  9 10  2  0  0  0  0
 10 11  1  0  0  0  0
 11 12  2  0  0  0  0
  6 12  1  0  0  0  0
 12 13  1  0  0  0  0
  3 13  1  0  0  0  0
M  END
>  <Catalog ID>
Z728884102

>  <Plate_ID>
2026997-X50-01

>  <Well>
C08

>  <V, µL>
50

>  <Conc, mM>
10

>  <Formula>
C11H16N2

>  <MW>
176.2581

>  <Purity>
100

>  <PO>
5A-64168

>  <MW_salt>
0

>  <Stereochem.data>
Achiral

>  <Geometric.isomer>
None

>  <Chemical name>
2-ethyl-1,2,3,4-tetrahydroisoquinolin-5-amine

>  <ClogP>
1,343

>  <logS>
-1,16

>  <HBD>
1

>  <HBA>
2

>  <TPSA>
29,26

>  <RotBonds>
1

$$$$

  Mrv1925 04172511382D          

 17 18  0  0  0  0            999 V2000
    2.1434    0.4125    0.0000 F   0  0  0  0  0  0  0  0  0  0  0  0
    2.1434   -0.4125    0.0000 C   0  0  0  0  0  0  0  0  0  0  0  0
    1.3184   -0.4125    0.0000 F   0  0  0  0  0  0  0  0  0  0  0  0
    2.9684   -0.4125    0.0000 F   0  0  0  0  0  0  0  0  0  0  0  0
    2.1434   -1.2375    0.0000 C   0  0  0  0  0  0  0  0  0  0  0  0
    2.8579   -1.6500    0.0000 C   0  0  0  0  0  0  0  0  0  0  0  0
    2.8579   -2.4750    0.0000 C   0  0  0  0  0  0  0  0  0  0  0  0
    2.1434   -2.8875    0.0000 C   0  0  0  0  0  0  0  0  0  0  0  0
    1.4289   -2.4750    0.0000 N   0  0  0  0  0  0  0  0  0  0  0  0
    1.4289   -1.6500    0.0000 C   0  0  0  0  0  0  0  0  0  0  0  0
    2.1434   -3.7125    0.0000 O   0  0  0  0  0  0  0  0  0  0  0  0
    1.4289   -4.1250    0.0000 C   0  0  0  0  0  0  0  0  0  0  0  0
    1.4289   -4.9500    0.0000 C   0  0  0  0  0  0  0  0  0  0  0  0
    0.7145   -5.3625    0.0000 C   0  0  0  0  0  0  0  0  0  0  0  0
   -0.0000   -4.9500    0.0000 N   0  0  0  0  0  0  0  0  0  0  0  0
    0.0000   -4.1250    0.0000 C   0  0  0  0  0  0  0  0  0  0  0  0
    0.7145   -3.7125    0.0000 C   0  0  0  0  0  0  0  0  0  0  0  0
  1  2  1  0  0  0  0
  2  3  1  0  0  0  0
  2  4  1  0  0  0  0
  2  5  1  0  0  0  0
  5  6  1  0  0  0  0
  6  7  2  0  0  0  0
  7  8  1  0  0  0  0
  8  9  2  0  0  0  0
  9 10  1  0  0  0  0
  5 10  2  0  0  0  0
  8 11  1  0  0  0  0
 11 12  1  0  0  0  0
 12 13  1  0  0  0  0
 13 14  1  0  0  0  0
 14 15  1  0  0  0  0
 15 16  1  0  0  0  0
 16 17  1  0  0  0  0
 12 17  1  0  0  0  0
M  END
>  <Catalog ID>
Z976688982

>  <Plate_ID>
2026997-X50-01

>  <Well>
D08

>  <V, µL>
50

>  <Conc, mM>
10

>  <Formula>
C11H13F3N2O

>  <MW>
246.2289

>  <Purity>
97.79

>  <PO>
5A-64168

>  <MW_salt>
0

>  <Stereochem.data>
Achiral

>  <Geometric.isomer>
None

>  <Chemical name>
2-(piperidin-4-yloxy)-5-(trifluoromethyl)pyridine

>  <ClogP>
2,057

>  <logS>
-2,118

>  <HBD>
1

>  <HBA>
3

>  <TPSA>
34,15

>  <RotBonds>
3

$$$$

  Mrv1925 04172511382D          

 11 11  0  0  0  0            999 V2000
   -0.7145    3.7125    0.0000 C   0  0  0  0  0  0  0  0  0  0  0  0
    0.0000    3.3000    0.0000 C   0  0  0  0  0  0  0  0  0  0  0  0
    0.0000    2.4750    0.0000 C   0  0  0  0  0  0  0  0  0  0  0  0
    0.7145    2.0625    0.0000 C   0  0  0  0  0  0  0  0  0  0  0  0
    1.4289    2.4750    0.0000 O   0  0  0  0  0  0  0  0  0  0  0  0
    0.7145    1.2375    0.0000 C   0  0  0  0  0  0  0  0  0  0  0  0
    1.4289    0.8250    0.0000 C   0  0  0  0  0  0  0  0  0  0  0  0
    1.4289   -0.0000    0.0000 C   0  0  0  0  0  0  0  0  0  0  0  0
    0.7145   -0.4125    0.0000 C   0  0  0  0  0  0  0  0  0  0  0  0
    0.0000    0.0000    0.0000 N   0  0  0  0  0  0  0  0  0  0  0  0
    0.0000    0.8250    0.0000 C   0  0  0  0  0  0  0  0  0  0  0  0
  1  2  1  0  0  0  0
  2  3  1  0  0  0  0
  3  4  1  0  0  0  0
  4  5  2  0  0  0  0
  4  6  1  0  0  0  0
  6  7  1  0  0  0  0
  7  8  2  0  0  0  0
  8  9  1  0  0  0  0
  9 10  2  0  0  0  0
 10 11  1  0  0  0  0
  6 11  2  0  0  0  0
M  END
>  <Catalog ID>
Z513733856

>  <Plate_ID>
2026997-X50-01

>  <Well>
E08

>  <V, µL>
50

>  <Conc, mM>
10

>  <Formula>
C9H11NO

>  <MW>
149.1897

>  <Purity>
100

>  <PO>
5A-64168

>  <MW_salt>
0

>  <Stereochem.data>
Achiral

>  <Geometric.isomer>
None

>  <Chemical name>
1-(pyridin-3-yl)butan-1-one

>  <ClogP>
1,538

>  <logS>
-1,5

>  <HBD>
0

>  <HBA>
2

>  <TPSA>
29,96

>  <RotBonds>
3

$$$$

  Mrv1925 04172511382D          

 12 13  0  0  0  0            999 V2000
   -0.5837   -1.4124    0.0000 O   0  0  0  0  0  0  0  0  0  0  0  0
   -0.1712   -0.6979    0.0000 C   0  0  0  0  0  0  0  0  0  0  0  0
    0.6538   -0.6979    0.0000 C   0  0  0  0  0  0  0  0  0  0  0  0
    1.1387   -0.0305    0.0000 C   0  0  0  0  0  0  0  0  0  0  0  0
    1.9233   -0.2854    0.0000 C   0  0  0  0  0  0  0  0  0  0  0  0
    2.6378    0.1271    0.0000 C   0  0  0  0  0  0  0  0  0  0  0  0
    2.6378    0.9521    0.0000 Cl  0  0  0  0  0  0  0  0  0  0  0  0
    3.3523   -0.2854    0.0000 C   0  0  0  0  0  0  0  0  0  0  0  0
    3.3523   -1.1104    0.0000 C   0  0  0  0  0  0  0  0  0  0  0  0
    2.6378   -1.5229    0.0000 C   0  0  0  0  0  0  0  0  0  0  0  0
    1.9233   -1.1104    0.0000 C   0  0  0  0  0  0  0  0  0  0  0  0
    1.1387   -1.3654    0.0000 N   0  0  0  0  0  0  0  0  0  0  0  0
  1  2  1  0  0  0  0
  2  3  1  0  0  0  0
  3  4  2  0  0  0  0
  4  5  1  0  0  0  0
  5  6  1  0  0  0  0
  6  7  1  0  0  0  0
  6  8  2  0  0  0  0
  8  9  1  0  0  0  0
  9 10  2  0  0  0  0
 10 11  1  0  0  0  0
  5 11  2  0  0  0  0
 11 12  1  0  0  0  0
  3 12  1  0  0  0  0
M  END
>  <Catalog ID>
Z1251357721

>  <Plate_ID>
2026997-X50-01

>  <Well>
F08

>  <V, µL>
50

>  <Conc, mM>
10

>  <Formula>
C9H8ClNO

>  <MW>
181.6189

>  <Purity>
95

>  <PO>
5A-64168

>  <MW_salt>
0

>  <Stereochem.data>
Achiral

>  <Geometric.isomer>
None

>  <Chemical name>
(4-chloro-1H-indol-2-yl)methanol

>  <ClogP>
1,975

>  <logS>
-2,83

>  <HBD>
2

>  <HBA>
1

>  <TPSA>
36,02

>  <RotBonds>
1

$$$$

  Mrv1925 04172511382D          

 12 12  0  0  1  0            999 V2000
   -0.1105    2.0625    0.0000 C   0  0  0  0  0  0  0  0  0  0  0  0
    0.7145    2.0625    0.0000 C   0  0  1  0  0  0  0  0  0  0  0  0
    1.5395    2.0625    0.0000 O   0  0  0  0  0  0  0  0  0  0  0  0
    0.7145    2.8875    0.0000 C   0  0  0  0  0  0  0  0  0  0  0  0
    0.0000    3.3000    0.0000 O   0  0  0  0  0  0  0  0  0  0  0  0
    1.4289    3.3000    0.0000 O   0  0  0  0  0  0  0  0  0  0  0  0
    0.7145    1.2375    0.0000 C   0  0  0  0  0  0  0  0  0  0  0  0
    1.4289    0.8250    0.0000 C   0  0  0  0  0  0  0  0  0  0  0  0
    1.4289   -0.0000    0.0000 C   0  0  0  0  0  0  0  0  0  0  0  0
    0.7145   -0.4125    0.0000 C   0  0  0  0  0  0  0  0  0  0  0  0
    0.0000    0.0000    0.0000 C   0  0  0  0  0  0  0  0  0  0  0  0
    0.0000    0.8250    0.0000 C   0  0  0  0  0  0  0  0  0  0  0  0
  2  1  1  0  0  0  0
  2  3  1  6  0  0  0
  2  4  1  1  0  0  0
  4  5  2  0  0  0  0
  4  6  1  0  0  0  0
  2  7  1  0  0  0  0
  7  8  1  0  0  0  0
  8  9  2  0  0  0  0
  9 10  1  0  0  0  0
 10 11  2  0  0  0  0
 11 12  1  0  0  0  0
  7 12  2  0  0  0  0
M  END
>  <Catalog ID>
Z1154245575

>  <Plate_ID>
2026997-X50-01

>  <Well>
G08

>  <V, µL>
50

>  <Conc, mM>
10

>  <Formula>
C9H10O3

>  <MW>
166.1739

>  <Purity>
100

>  <PO>
5A-64168

>  <MW_salt>
0

>  <Stereochem.data>
Single known enantiomer

>  <Geometric.isomer>
None

>  <Chemical name>
(2S)-2-hydroxy-2-phenylpropanoic acid

>  <ClogP>
0,811

>  <logS>
-1,49

>  <HBD>
2

>  <HBA>
3

>  <TPSA>
57,53

>  <RotBonds>
2

$$$$

  Mrv1925 04172511382D          

 10 11  0  0  0  0            999 V2000
    4.0668    2.3479    0.0000 O   0  0  0  0  0  0  0  0  0  0  0  0
    3.3523    1.9354    0.0000 C   0  0  0  0  0  0  0  0  0  0  0  0
    3.3523    1.1104    0.0000 C   0  0  0  0  0  0  0  0  0  0  0  0
    2.6378    0.6979    0.0000 C   0  0  0  0  0  0  0  0  0  0  0  0
    1.9233    1.1104    0.0000 C   0  0  0  0  0  0  0  0  0  0  0  0
    1.1387    0.8555    0.0000 C   0  0  0  0  0  0  0  0  0  0  0  0
    0.6538    1.5229    0.0000 N   0  0  0  0  0  0  0  0  0  0  0  0
    1.1387    2.1904    0.0000 N   0  0  0  0  0  0  0  0  0  0  0  0
    1.9233    1.9354    0.0000 C   0  0  0  0  0  0  0  0  0  0  0  0
    2.6378    2.3479    0.0000 C   0  0  0  0  0  0  0  0  0  0  0  0
  1  2  1  0  0  0  0
  2  3  1  0  0  0  0
  3  4  2  0  0  0  0
  4  5  1  0  0  0  0
  5  6  1  0  0  0  0
  6  7  2  0  0  0  0
  7  8  1  0  0  0  0
  8  9  1  0  0  0  0
  5  9  2  0  0  0  0
  9 10  1  0  0  0  0
  2 10  2  0  0  0  0
M  END
>  <Catalog ID>
Z1198147845

>  <Plate_ID>
2026997-X50-01

>  <Well>
H08

>  <V, µL>
50

>  <Conc, mM>
10

>  <Formula>
C7H6N2O

>  <MW>
134.1353

>  <Purity>
96.44

>  <PO>
5A-64168

>  <MW_salt>
0

>  <Stereochem.data>
Achiral

>  <Geometric.isomer>
None

>  <Chemical name>
1H-indazol-6-ol

>  <ClogP>
1,634

>  <logS>
-1,55

>  <HBD>
2

>  <HBA>
2

>  <TPSA>
48,91

>  <RotBonds>
0

$$$$

  Mrv1925 04172511382D          

  9 10  0  0  0  0            999 V2000
    1.1387   -1.3654    0.0000 C   0  0  0  0  0  0  0  0  0  0  0  0
    0.6538   -0.6979    0.0000 N   0  0  0  0  0  0  0  0  0  0  0  0
    1.1387   -0.0305    0.0000 O   0  0  0  0  0  0  0  0  0  0  0  0
    1.9233   -0.2854    0.0000 C   0  0  0  0  0  0  0  0  0  0  0  0
    2.6378    0.1271    0.0000 C   0  0  0  0  0  0  0  0  0  0  0  0
    3.3523   -0.2854    0.0000 C   0  0  0  0  0  0  0  0  0  0  0  0
    3.3523   -1.1104    0.0000 C   0  0  0  0  0  0  0  0  0  0  0  0
    2.6378   -1.5229    0.0000 C   0  0  0  0  0  0  0  0  0  0  0  0
    1.9233   -1.1104    0.0000 C   0  0  0  0  0  0  0  0  0  0  0  0
  1  2  2  0  0  0  0
  2  3  1  0  0  0  0
  3  4  1  0  0  0  0
  4  5  1  0  0  0  0
  5  6  2  0  0  0  0
  6  7  1  0  0  0  0
  7  8  2  0  0  0  0
  8  9  1  0  0  0  0
  1  9  1  0  0  0  0
  4  9  2  0  0  0  0
M  END
>  <Catalog ID>
Z220335556

>  <Plate_ID>
2026997-X50-01

>  <Well>
A09

>  <V, µL>
50

>  <Conc, mM>
10

>  <Formula>
C7H5NO

>  <MW>
119.1207

>  <Purity>
95

>  <PO>
5A-64168

>  <MW_salt>
0

>  <Stereochem.data>
Achiral

>  <Geometric.isomer>
None

>  <Chemical name>
1,2-benzoxazole

>  <ClogP>
1,505

>  <logS>
-1,48

>  <HBD>
0

>  <HBA>
1

>  <TPSA>
26,03

>  <RotBonds>
0

$$$$

  Mrv1925 04172511382D          

  9  9  0  0  0  0            999 V2000
   -0.8612    2.7643    0.0000 C   0  0  0  0  0  0  0  0  0  0  0  0
   -0.1467    2.3518    0.0000 C   0  0  0  0  0  0  0  0  0  0  0  0
    0.5678    1.9393    0.0000 C   0  0  0  0  0  0  0  0  0  0  0  0
    0.5678    1.1143    0.0000 N   0  0  0  0  0  0  0  0  0  0  0  0
    1.2352    0.6294    0.0000 C   0  0  0  0  0  0  0  0  0  0  0  0
    0.9803   -0.1553    0.0000 C   0  0  0  0  0  0  0  0  0  0  0  0
    0.1553   -0.1553    0.0000 O   0  0  0  0  0  0  0  0  0  0  0  0
   -0.0997    0.6294    0.0000 C   0  0  0  0  0  0  0  0  0  0  0  0
   -0.8843    0.8843    0.0000 O   0  0  0  0  0  0  0  0  0  0  0  0
  1  2  3  0  0  0  0
  2  3  1  0  0  0  0
  3  4  1  0  0  0  0
  4  5  1  0  0  0  0
  5  6  1  0  0  0  0
  6  7  1  0  0  0  0
  7  8  1  0  0  0  0
  4  8  1  0  0  0  0
  8  9  2  0  0  0  0
M  END
>  <Catalog ID>
Z804943488

>  <Plate_ID>
2026997-X50-01

>  <Well>
B09

>  <V, µL>
50

>  <Conc, mM>
10

>  <Formula>
C6H7NO2

>  <MW>
125.1253

>  <Purity>
100

>  <PO>
5A-64168

>  <MW_salt>
0

>  <Stereochem.data>
Achiral

>  <Geometric.isomer>
None

>  <Chemical name>
3-(prop-2-yn-1-yl)-1,3-oxazolidin-2-one

>  <ClogP>
0,554

>  <logS>
-1,199

>  <HBD>
0

>  <HBA>
1

>  <TPSA>
29,54

>  <RotBonds>
1

$$$$

  Mrv1925 04172511382D          

 13 14  0  0  0  0            999 V2000
    0.7145   -0.4125    0.0000 N   0  0  0  0  0  0  0  0  0  0  0  0
    0.7145   -1.2375    0.0000 C   0  0  0  0  0  0  0  0  0  0  0  0
    1.4289   -1.6500    0.0000 C   0  0  0  0  0  0  0  0  0  0  0  0
    1.4289   -2.4750    0.0000 C   0  0  0  0  0  0  0  0  0  0  0  0
    0.7145   -2.8875    0.0000 C   0  0  0  0  0  0  0  0  0  0  0  0
    0.0000   -2.4750    0.0000 C   0  0  0  0  0  0  0  0  0  0  0  0
    0.0000   -1.6500    0.0000 C   0  0  0  0  0  0  0  0  0  0  0  0
   -0.7145   -2.8875    0.0000 C   0  0  0  0  0  0  0  0  0  0  0  0
   -0.7145   -3.7125    0.0000 C   0  0  0  0  0  0  0  0  0  0  0  0
   -1.4289   -4.1250    0.0000 C   0  0  0  0  0  0  0  0  0  0  0  0
   -2.1434   -3.7125    0.0000 C   0  0  0  0  0  0  0  0  0  0  0  0
   -2.1434   -2.8875    0.0000 N   0  0  0  0  0  0  0  0  0  0  0  0
   -1.4289   -2.4750    0.0000 C   0  0  0  0  0  0  0  0  0  0  0  0
  1  2  1  0  0  0  0
  2  3  1  0  0  0  0
  3  4  2  0  0  0  0
  4  5  1  0  0  0  0
  5  6  2  0  0  0  0
  6  7  1  0  0  0  0
  2  7  2  0  0  0  0
  6  8  1  0  0  0  0
  8  9  1  0  0  0  0
  9 10  2  0  0  0  0
 10 11  1  0  0  0  0
 11 12  2  0  0  0  0
 12 13  1  0  0  0  0
  8 13  2  0  0  0  0
M  END
>  <Catalog ID>
Z732776044

>  <Plate_ID>
2026997-X50-01

>  <Well>
C09

>  <V, µL>
50

>  <Conc, mM>
10

>  <Formula>
C11H10N2

>  <MW>
170.2105

>  <Purity>
95

>  <PO>
5A-64168

>  <MW_salt>
0

>  <Stereochem.data>
Achiral

>  <Geometric.isomer>
None

>  <Chemical name>
3-(pyridin-3-yl)aniline

>  <ClogP>
1,486

>  <logS>
-2,469

>  <HBD>
1

>  <HBA>
2

>  <TPSA>
38,91

>  <RotBonds>
1

$$$$

  Mrv1925 04172511382D          

 15 16  0  0  0  0            999 V2000
    0.0000    0.8250    0.0000 C   0  0  0  0  0  0  0  0  0  0  0  0
    0.0000    0.0000    0.0000 N   0  0  0  0  0  0  0  0  0  0  0  0
    0.7145   -0.4125    0.0000 C   0  0  0  0  0  0  0  0  0  0  0  0
    0.7145   -1.2375    0.0000 C   0  0  0  0  0  0  0  0  0  0  0  0
    1.4289   -1.6500    0.0000 C   0  0  0  0  0  0  0  0  0  0  0  0
    1.4289   -2.4750    0.0000 C   0  0  0  0  0  0  0  0  0  0  0  0
    0.7145   -2.8875    0.0000 C   0  0  0  0  0  0  0  0  0  0  0  0
    0.0000   -2.4750    0.0000 C   0  0  0  0  0  0  0  0  0  0  0  0
    0.0000   -1.6500    0.0000 C   0  0  0  0  0  0  0  0  0  0  0  0
    0.7145   -3.7125    0.0000 N   0  0  0  0  0  0  0  0  0  0  0  0
    1.4289   -4.1250    0.0000 C   0  0  0  0  0  0  0  0  0  0  0  0
    1.4289   -4.9500    0.0000 C   0  0  0  0  0  0  0  0  0  0  0  0
    0.7145   -5.3625    0.0000 C   0  0  0  0  0  0  0  0  0  0  0  0
    0.0000   -4.9500    0.0000 C   0  0  0  0  0  0  0  0  0  0  0  0
    0.0000   -4.1250    0.0000 C   0  0  0  0  0  0  0  0  0  0  0  0
  1  2  1  0  0  0  0
  2  3  1  0  0  0  0
  3  4  1  0  0  0  0
  4  5  1  0  0  0  0
  5  6  2  0  0  0  0
  6  7  1  0  0  0  0
  7  8  2  0  0  0  0
  8  9  1  0  0  0  0
  4  9  2  0  0  0  0
  7 10  1  0  0  0  0
 10 11  1  0  0  0  0
 11 12  1  0  0  0  0
 12 13  1  0  0  0  0
 13 14  1  0  0  0  0
 14 15  1  0  0  0  0
 10 15  1  0  0  0  0
M  END
>  <Catalog ID>
Z102767654

>  <Plate_ID>
2026997-X50-01

>  <Well>
D09

>  <V, µL>
50

>  <Conc, mM>
10

>  <Formula>
C13H20N2

>  <MW>
204.3113

>  <Purity>
95

>  <PO>
5A-64168

>  <MW_salt>
0

>  <Stereochem.data>
Achiral

>  <Geometric.isomer>
None

>  <Chemical name>
methyl({[4-(piperidin-1-yl)phenyl]methyl})amine

>  <ClogP>
2,348

>  <logS>
-1,79

>  <HBD>
1

>  <HBA>
2

>  <TPSA>
15,27

>  <RotBonds>
3

$$$$

  Mrv1925 04172511382D          

 11 11  0  0  0  0            999 V2000
    0.7145    2.8875    0.0000 F   0  0  0  0  0  0  0  0  0  0  0  0
    0.7145    2.0625    0.0000 C   0  0  0  0  0  0  0  0  0  0  0  0
   -0.1105    2.0625    0.0000 F   0  0  0  0  0  0  0  0  0  0  0  0
    1.5395    2.0625    0.0000 F   0  0  0  0  0  0  0  0  0  0  0  0
    0.7145    1.2375    0.0000 C   0  0  0  0  0  0  0  0  0  0  0  0
    1.4289    0.8250    0.0000 N   0  0  0  0  0  0  0  0  0  0  0  0
    1.4289   -0.0000    0.0000 C   0  0  0  0  0  0  0  0  0  0  0  0
    0.7145   -0.4125    0.0000 C   0  0  0  0  0  0  0  0  0  0  0  0
    0.7145   -1.2375    0.0000 Br  0  0  0  0  0  0  0  0  0  0  0  0
    0.0000    0.0000    0.0000 C   0  0  0  0  0  0  0  0  0  0  0  0
    0.0000    0.8250    0.0000 N   0  0  0  0  0  0  0  0  0  0  0  0
  1  2  1  0  0  0  0
  2  3  1  0  0  0  0
  2  4  1  0  0  0  0
  2  5  1  0  0  0  0
  5  6  1  0  0  0  0
  6  7  2  0  0  0  0
  7  8  1  0  0  0  0
  8  9  1  0  0  0  0
  8 10  2  0  0  0  0
 10 11  1  0  0  0  0
  5 11  2  0  0  0  0
M  END
>  <Catalog ID>
Z729557174

>  <Plate_ID>
2026997-X50-01

>  <Well>
E09

>  <V, µL>
50

>  <Conc, mM>
10

>  <Formula>
C5H2BrF3N2

>  <MW>
226.982

>  <Purity>
97.58

>  <PO>
5A-64168

>  <MW_salt>
0

>  <Stereochem.data>
Achiral

>  <Geometric.isomer>
None

>  <Chemical name>
5-bromo-2-(trifluoromethyl)pyrimidine

>  <ClogP>
1,514

>  <logS>
-2,129

>  <HBD>
0

>  <HBA>
2

>  <TPSA>
25,78

>  <RotBonds>
1

$$$$

  Mrv1925 04172511382D          

 11 11  0  0  0  0            999 V2000
   -0.7145    3.7125    0.0000 O   0  0  0  0  0  0  0  0  0  0  0  0
    0.0000    3.3000    0.0000 C   0  0  0  0  0  0  0  0  0  0  0  0
    0.7145    3.7125    0.0000 O   0  0  0  0  0  0  0  0  0  0  0  0
    0.0000    2.4750    0.0000 C   0  0  0  0  0  0  0  0  0  0  0  0
    0.7145    2.0625    0.0000 O   0  0  0  0  0  0  0  0  0  0  0  0
    0.7145    1.2375    0.0000 C   0  0  0  0  0  0  0  0  0  0  0  0
    1.4289    0.8250    0.0000 C   0  0  0  0  0  0  0  0  0  0  0  0
    1.4289   -0.0000    0.0000 C   0  0  0  0  0  0  0  0  0  0  0  0
    0.7145   -0.4125    0.0000 C   0  0  0  0  0  0  0  0  0  0  0  0
    0.0000    0.0000    0.0000 C   0  0  0  0  0  0  0  0  0  0  0  0
    0.0000    0.8250    0.0000 C   0  0  0  0  0  0  0  0  0  0  0  0
  1  2  2  0  0  0  0
  2  3  1  0  0  0  0
  2  4  1  0  0  0  0
  4  5  1  0  0  0  0
  5  6  1  0  0  0  0
  6  7  1  0  0  0  0
  7  8  1  0  0  0  0
  8  9  1  0  0  0  0
  9 10  1  0  0  0  0
 10 11  1  0  0  0  0
  6 11  1  0  0  0  0
M  END
>  <Catalog ID>
Z316258722

>  <Plate_ID>
2026997-X50-01

>  <Well>
F09

>  <V, µL>
50

>  <Conc, mM>
10

>  <Formula>
C8H14O3

>  <MW>
158.195

>  <Purity>
96.12

>  <PO>
5A-64168

>  <MW_salt>
0

>  <Stereochem.data>
Achiral

>  <Geometric.isomer>
None

>  <Chemical name>
2-(cyclohexyloxy)acetic acid

>  <ClogP>
1,64

>  <logS>
-1,16

>  <HBD>
1

>  <HBA>
3

>  <TPSA>
46,53

>  <RotBonds>
3

$$$$

  Mrv1925 04172511382D          

 10 11  0  0  0  0            999 V2000
   -0.1712   -0.6979    0.0000 C   0  0  0  0  0  0  0  0  0  0  0  0
    0.6538   -0.6979    0.0000 C   0  0  0  0  0  0  0  0  0  0  0  0
    1.1387   -0.0305    0.0000 N   0  0  0  0  0  0  0  0  0  0  0  0
    1.9233   -0.2854    0.0000 C   0  0  0  0  0  0  0  0  0  0  0  0
    2.6378    0.1271    0.0000 C   0  0  0  0  0  0  0  0  0  0  0  0
    3.3523   -0.2854    0.0000 C   0  0  0  0  0  0  0  0  0  0  0  0
    3.3523   -1.1104    0.0000 C   0  0  0  0  0  0  0  0  0  0  0  0
    2.6378   -1.5229    0.0000 C   0  0  0  0  0  0  0  0  0  0  0  0
    1.9233   -1.1104    0.0000 C   0  0  0  0  0  0  0  0  0  0  0  0
    1.1387   -1.3654    0.0000 N   0  0  0  0  0  0  0  0  0  0  0  0
  1  2  1  0  0  0  0
  2  3  2  0  0  0  0
  3  4  1  0  0  0  0
  4  5  1  0  0  0  0
  5  6  2  0  0  0  0
  6  7  1  0  0  0  0
  7  8  2  0  0  0  0
  8  9  1  0  0  0  0
  4  9  2  0  0  0  0
  9 10  1  0  0  0  0
  2 10  1  0  0  0  0
M  END
>  <Catalog ID>
Z55692894

>  <Plate_ID>
2026997-X50-01

>  <Well>
G09

>  <V, µL>
50

>  <Conc, mM>
10

>  <Formula>
C8H8N2

>  <MW>
132.1625

>  <Purity>
100

>  <PO>
5A-64168

>  <MW_salt>
0

>  <Stereochem.data>
Achiral

>  <Geometric.isomer>
None

>  <Chemical name>
2-methyl-1H-1,3-benzodiazole

>  <ClogP>
1,834

>  <logS>
-1,68

>  <HBD>
1

>  <HBA>
1

>  <TPSA>
28,68

>  <RotBonds>
0

$$$$

  Mrv1925 04172511382D          

 11 12  0  0  0  0            999 V2000
    1.4289   -2.4750    0.0000 O   0  0  0  0  0  0  0  0  0  0  0  0
    1.4289   -1.6500    0.0000 C   0  0  0  0  0  0  0  0  0  0  0  0
    0.7145   -1.2375    0.0000 N   0  0  0  0  0  0  0  0  0  0  0  0
    0.7145   -0.4125    0.0000 C   0  0  0  0  0  0  0  0  0  0  0  0
    1.4289    0.0000    0.0000 C   0  0  0  0  0  0  0  0  0  0  0  0
    2.1434   -0.4125    0.0000 C   0  0  0  0  0  0  0  0  0  0  0  0
    2.8579    0.0000    0.0000 C   0  0  0  0  0  0  0  0  0  0  0  0
    3.5724   -0.4125    0.0000 C   0  0  0  0  0  0  0  0  0  0  0  0
    3.5724   -1.2375    0.0000 C   0  0  0  0  0  0  0  0  0  0  0  0
    2.8579   -1.6500    0.0000 C   0  0  0  0  0  0  0  0  0  0  0  0
    2.1434   -1.2375    0.0000 C   0  0  0  0  0  0  0  0  0  0  0  0
  1  2  2  0  0  0  0
  2  3  1  0  0  0  0
  3  4  1  0  0  0  0
  4  5  2  0  0  0  0
  5  6  1  0  0  0  0
  6  7  1  0  0  0  0
  7  8  2  0  0  0  0
  8  9  1  0  0  0  0
  9 10  2  0  0  0  0
 10 11  1  0  0  0  0
  2 11  1  0  0  0  0
  6 11  2  0  0  0  0
M  END
>  <Catalog ID>
Z56960237

>  <Plate_ID>
2026997-X50-01

>  <Well>
H09

>  <V, µL>
50

>  <Conc, mM>
10

>  <Formula>
C9H7NO

>  <MW>
145.158

>  <Purity>
98.62

>  <PO>
5A-64168

>  <MW_salt>
0

>  <Stereochem.data>
Achiral

>  <Geometric.isomer>
None

>  <Chemical name>
1,2-dihydroisoquinolin-1-one

>  <ClogP>
0,812

>  <logS>
-2,71

>  <HBD>
1

>  <HBA>
1

>  <TPSA>
29,1

>  <RotBonds>
0

$$$$

  Mrv1925 04172511382D          

 14 14  0  0  0  0            999 V2000
    1.4289   -4.1250    0.0000 O   0  0  0  0  0  0  0  0  0  0  0  0
    2.1434   -3.7125    0.0000 C   0  0  0  0  0  0  0  0  0  0  0  0
    2.1434   -2.8875    0.0000 O   0  0  0  0  0  0  0  0  0  0  0  0
    2.8579   -4.1250    0.0000 C   0  0  0  0  0  0  0  0  0  0  0  0
    3.5724   -3.7125    0.0000 N   0  0  0  0  0  0  0  0  0  0  0  0
    4.2868   -4.1250    0.0000 C   0  0  0  0  0  0  0  0  0  0  0  0
    4.2868   -4.9500    0.0000 O   0  0  0  0  0  0  0  0  0  0  0  0
    5.0013   -3.7125    0.0000 N   0  0  0  0  0  0  0  0  0  0  0  0
    5.7158   -4.1250    0.0000 C   0  0  0  0  0  0  0  0  0  0  0  0
    6.4302   -3.7125    0.0000 C   0  0  0  0  0  0  0  0  0  0  0  0
    7.1447   -4.1250    0.0000 C   0  0  0  0  0  0  0  0  0  0  0  0
    7.1447   -4.9500    0.0000 C   0  0  0  0  0  0  0  0  0  0  0  0
    6.4302   -5.3625    0.0000 C   0  0  0  0  0  0  0  0  0  0  0  0
    5.7158   -4.9500    0.0000 C   0  0  0  0  0  0  0  0  0  0  0  0
  1  2  2  0  0  0  0
  2  3  1  0  0  0  0
  2  4  1  0  0  0  0
  4  5  1  0  0  0  0
  5  6  1  0  0  0  0
  6  7  2  0  0  0  0
  6  8  1  0  0  0  0
  8  9  1  0  0  0  0
  9 10  1  0  0  0  0
 10 11  1  0  0  0  0
 11 12  1  0  0  0  0
 12 13  1  0  0  0  0
 13 14  1  0  0  0  0
  9 14  1  0  0  0  0
M  END
>  <Catalog ID>
Z228589126

>  <Plate_ID>
2026997-X50-01

>  <Well>
A10

>  <V, µL>
50

>  <Conc, mM>
10

>  <Formula>
C9H16N2O3

>  <MW>
200.2349

>  <Purity>
95

>  <PO>
5A-64168

>  <MW_salt>
0

>  <Stereochem.data>
Achiral

>  <Geometric.isomer>
None

>  <Chemical name>
2-[(cyclohexylcarbamoyl)amino]acetic acid

>  <ClogP>
1,431

>  <logS>
-1,67

>  <HBD>
3

>  <HBA>
3

>  <TPSA>
78,43

>  <RotBonds>
3

$$$$

  Mrv1925 04172511382D          

 11 12  0  0  0  0            999 V2000
    1.4289   -2.4750    0.0000 O   0  0  0  0  0  0  0  0  0  0  0  0
    1.4289   -1.6500    0.0000 C   0  0  0  0  0  0  0  0  0  0  0  0
    0.7145   -1.2375    0.0000 C   0  0  0  0  0  0  0  0  0  0  0  0
    0.7145   -0.4125    0.0000 C   0  0  0  0  0  0  0  0  0  0  0  0
    1.4289    0.0000    0.0000 N   0  0  0  0  0  0  0  0  0  0  0  0
    2.1434   -0.4125    0.0000 C   0  0  0  0  0  0  0  0  0  0  0  0
    2.8579    0.0000    0.0000 C   0  0  0  0  0  0  0  0  0  0  0  0
    3.5724   -0.4125    0.0000 C   0  0  0  0  0  0  0  0  0  0  0  0
    3.5724   -1.2375    0.0000 C   0  0  0  0  0  0  0  0  0  0  0  0
    2.8579   -1.6500    0.0000 C   0  0  0  0  0  0  0  0  0  0  0  0
    2.1434   -1.2375    0.0000 C   0  0  0  0  0  0  0  0  0  0  0  0
  1  2  1  0  0  0  0
  2  3  1  0  0  0  0
  3  4  2  0  0  0  0
  4  5  1  0  0  0  0
  5  6  2  0  0  0  0
  6  7  1  0  0  0  0
  7  8  2  0  0  0  0
  8  9  1  0  0  0  0
  9 10  2  0  0  0  0
 10 11  1  0  0  0  0
  2 11  2  0  0  0  0
  6 11  1  0  0  0  0
M  END
>  <Catalog ID>
Z818727120

>  <Plate_ID>
2026997-X50-01

>  <Well>
B10

>  <V, µL>
50

>  <Conc, mM>
10

>  <Formula>
C9H7NO

>  <MW>
145.158

>  <Purity>
100

>  <PO>
5A-64168

>  <MW_salt>
0

>  <Stereochem.data>
Achiral

>  <Geometric.isomer>
None

>  <Chemical name>
quinolin-4-ol

>  <ClogP>
2,316

>  <logS>
-1,62

>  <HBD>
1

>  <HBA>
2

>  <TPSA>
33,12

>  <RotBonds>
0

$$$$

  Mrv1925 04172511382D          

 13 14  0  0  0  0            999 V2000
    0.0000   -2.4750    0.0000 N   0  0  0  0  0  0  0  0  0  0  0  0
    0.0000   -1.6500    0.0000 C   0  0  0  0  0  0  0  0  0  0  0  0
   -0.7145   -1.2375    0.0000 N   0  0  0  0  0  0  0  0  0  0  0  0
    0.7145   -1.2375    0.0000 C   0  0  0  0  0  0  0  0  0  0  0  0
    0.7145   -0.4125    0.0000 C   0  0  0  0  0  0  0  0  0  0  0  0
    1.4289    0.0000    0.0000 C   0  0  0  0  0  0  0  0  0  0  0  0
    2.1434   -0.4125    0.0000 C   0  0  0  0  0  0  0  0  0  0  0  0
    2.8579    0.0000    0.0000 C   0  0  0  0  0  0  0  0  0  0  0  0
    3.5724   -0.4125    0.0000 C   0  0  0  0  0  0  0  0  0  0  0  0
    3.5724   -1.2375    0.0000 C   0  0  0  0  0  0  0  0  0  0  0  0
    2.8579   -1.6500    0.0000 C   0  0  0  0  0  0  0  0  0  0  0  0
    2.1434   -1.2375    0.0000 C   0  0  0  0  0  0  0  0  0  0  0  0
    1.4289   -1.6500    0.0000 C   0  0  0  0  0  0  0  0  0  0  0  0
  1  2  2  0  0  0  0
  2  3  1  0  0  0  0
  2  4  1  0  0  0  0
  4  5  2  0  0  0  0
  5  6  1  0  0  0  0
  6  7  2  0  0  0  0
  7  8  1  0  0  0  0
  8  9  2  0  0  0  0
  9 10  1  0  0  0  0
 10 11  2  0  0  0  0
 11 12  1  0  0  0  0
  7 12  1  0  0  0  0
 12 13  2  0  0  0  0
  4 13  1  0  0  0  0
M  END
>  <Catalog ID>
Z381356458

>  <Plate_ID>
2026997-X50-01

>  <Well>
C10

>  <V, µL>
50

>  <Conc, mM>
10

>  <Formula>
C11H10N2

>  <MW>
170.2105

>  <Purity>
95.28

>  <PO>
5A-64168

>  <MW_salt>
0

>  <Stereochem.data>
Achiral

>  <Geometric.isomer>
None

>  <Chemical name>
naphthalene-2-carboximidamide

>  <ClogP>
1,819

>  <logS>
-3,54

>  <HBD>
2

>  <HBA>
2

>  <TPSA>
49,87

>  <RotBonds>
1

$$$$

  Mrv1925 04172511382D          

 14 15  0  0  0  0            999 V2000
    0.0000   -2.4750    0.0000 O   0  0  0  0  0  0  0  0  0  0  0  0
    0.0000   -1.6500    0.0000 C   0  0  0  0  0  0  0  0  0  0  0  0
   -0.7145   -1.2375    0.0000 O   0  0  0  0  0  0  0  0  0  0  0  0
    0.7145   -1.2375    0.0000 C   0  0  0  0  0  0  0  0  0  0  0  0
    0.7145   -0.4125    0.0000 C   0  0  0  0  0  0  0  0  0  0  0  0
    1.4289    0.0000    0.0000 C   0  0  0  0  0  0  0  0  0  0  0  0
    2.1434   -0.4125    0.0000 C   0  0  0  0  0  0  0  0  0  0  0  0
    2.8579    0.0000    0.0000 N   0  0  0  0  0  0  0  0  0  0  0  0
    3.5724   -0.4125    0.0000 C   0  0  0  0  0  0  0  0  0  0  0  0
    4.2868   -0.0000    0.0000 O   0  0  0  0  0  0  0  0  0  0  0  0
    3.5724   -1.2375    0.0000 C   0  0  0  0  0  0  0  0  0  0  0  0
    2.8579   -1.6500    0.0000 S   0  0  0  0  0  0  0  0  0  0  0  0
    2.1434   -1.2375    0.0000 C   0  0  0  0  0  0  0  0  0  0  0  0
    1.4289   -1.6500    0.0000 C   0  0  0  0  0  0  0  0  0  0  0  0
  1  2  2  0  0  0  0
  2  3  1  0  0  0  0
  2  4  1  0  0  0  0
  4  5  1  0  0  0  0
  5  6  2  0  0  0  0
  6  7  1  0  0  0  0
  7  8  1  0  0  0  0
  8  9  1  0  0  0  0
  9 10  2  0  0  0  0
  9 11  1  0  0  0  0
 11 12  1  0  0  0  0
 12 13  1  0  0  0  0
  7 13  2  0  0  0  0
 13 14  1  0  0  0  0
  4 14  2  0  0  0  0
M  END
>  <Catalog ID>
Z1508957209

>  <Plate_ID>
2026997-X50-01

>  <Well>
D10

>  <V, µL>
50

>  <Conc, mM>
10

>  <Formula>
C9H7NO3S

>  <MW>
209.2218

>  <Purity>
100

>  <PO>
5A-64168

>  <MW_salt>
0

>  <Stereochem.data>
Achiral

>  <Geometric.isomer>
None

>  <Chemical name>
3-oxo-3,4-dihydro-2H-1,4-benzothiazine-7-carboxylic acid

>  <ClogP>
1,334

>  <logS>
-2,5

>  <HBD>
2

>  <HBA>
3

>  <TPSA>
66,4

>  <RotBonds>
1

$$$$

  Mrv1925 04172511382D          

 13 13  0  0  0  0            999 V2000
    1.4289    2.4750    0.0000 C   0  0  0  0  0  0  0  0  0  0  0  0
    0.7145    2.0625    0.0000 O   0  0  0  0  0  0  0  0  0  0  0  0
    0.7145    1.2375    0.0000 C   0  0  0  0  0  0  0  0  0  0  0  0
    1.4289    0.8250    0.0000 C   0  0  0  0  0  0  0  0  0  0  0  0
    1.4289   -0.0000    0.0000 C   0  0  0  0  0  0  0  0  0  0  0  0
    0.7145   -0.4125    0.0000 C   0  0  0  0  0  0  0  0  0  0  0  0
    0.0000    0.0000    0.0000 C   0  0  0  0  0  0  0  0  0  0  0  0
   -0.7145   -0.4125    0.0000 C   0  0  0  0  0  0  0  0  0  0  0  0
   -0.7145   -1.2375    0.0000 O   0  0  0  0  0  0  0  0  0  0  0  0
   -1.4289    0.0000    0.0000 O   0  0  0  0  0  0  0  0  0  0  0  0
    0.0000    0.8250    0.0000 C   0  0  0  0  0  0  0  0  0  0  0  0
   -0.7145    1.2375    0.0000 O   0  0  0  0  0  0  0  0  0  0  0  0
   -0.7145    2.0625    0.0000 C   0  0  0  0  0  0  0  0  0  0  0  0
  1  2  1  0  0  0  0
  2  3  1  0  0  0  0
  3  4  1  0  0  0  0
  4  5  2  0  0  0  0
  5  6  1  0  0  0  0
  6  7  2  0  0  0  0
  7  8  1  0  0  0  0
  8  9  2  0  0  0  0
  8 10  1  0  0  0  0
  7 11  1  0  0  0  0
  3 11  2  0  0  0  0
 11 12  1  0  0  0  0
 12 13  1  0  0  0  0
M  END
>  <Catalog ID>
Z104476536

>  <Plate_ID>
2026997-X50-01

>  <Well>
E10

>  <V, µL>
50

>  <Conc, mM>
10

>  <Formula>
C9H10O4

>  <MW>
182.1733

>  <Purity>
98

>  <PO>
5A-64168

>  <MW_salt>
0

>  <Stereochem.data>
Achiral

>  <Geometric.isomer>
None

>  <Chemical name>
2,3-dimethoxybenzoic acid

>  <ClogP>
1,235

>  <logS>
-1,58

>  <HBD>
1

>  <HBA>
4

>  <TPSA>
55,76

>  <RotBonds>
3

$$$$

  Mrv1925 04172511382D          

  8  8  0  0  0  0            999 V2000
    0.7145    2.0625    0.0000 O   0  0  0  0  0  0  0  0  0  0  0  0
    0.7145    1.2375    0.0000 C   0  0  0  0  0  0  0  0  0  0  0  0
    1.4289    0.8250    0.0000 C   0  0  0  0  0  0  0  0  0  0  0  0
    1.4289   -0.0000    0.0000 C   0  0  0  0  0  0  0  0  0  0  0  0
    0.7145   -0.4125    0.0000 N   0  0  0  0  0  0  0  0  0  0  0  0
    0.0000    0.0000    0.0000 C   0  0  0  0  0  0  0  0  0  0  0  0
   -0.7145   -0.4125    0.0000 O   0  0  0  0  0  0  0  0  0  0  0  0
    0.0000    0.8250    0.0000 N   0  0  0  0  0  0  0  0  0  0  0  0
  1  2  2  0  0  0  0
  2  3  1  0  0  0  0
  3  4  2  0  0  0  0
  4  5  1  0  0  0  0
  5  6  1  0  0  0  0
  6  7  2  0  0  0  0
  6  8  1  0  0  0  0
  2  8  1  0  0  0  0
M  END
>  <Catalog ID>
Z56889474

>  <Plate_ID>
2026997-X50-01

>  <Well>
F10

>  <V, µL>
50

>  <Conc, mM>
10

>  <Formula>
C4H4N2O2

>  <MW>
112.0868

>  <Purity>
95

>  <PO>
5A-64168

>  <MW_salt>
0

>  <Stereochem.data>
Achiral

>  <Geometric.isomer>
None

>  <Chemical name>
1,2,3,4-tetrahydropyrimidine-2,4-dione

>  <ClogP>
-1,056

>  <logS>
-0,88

>  <HBD>
2

>  <HBA>
2

>  <TPSA>
58,2

>  <RotBonds>
0

$$$$

  Mrv1925 04172511382D          

 13 14  0  0  0  0            999 V2000
    0.0000   -1.6500    0.0000 C   0  0  0  0  0  0  0  0  0  0  0  0
    0.7145   -1.2375    0.0000 C   0  0  0  0  0  0  0  0  0  0  0  0
    0.7145   -0.4125    0.0000 C   0  0  0  0  0  0  0  0  0  0  0  0
    1.4289    0.0000    0.0000 C   0  0  0  0  0  0  0  0  0  0  0  0
    1.4289    0.8250    0.0000 C   0  0  0  0  0  0  0  0  0  0  0  0
    2.1434    1.2375    0.0000 O   0  0  0  0  0  0  0  0  0  0  0  0
    2.1434   -0.4125    0.0000 C   0  0  0  0  0  0  0  0  0  0  0  0
    2.8579    0.0000    0.0000 C   0  0  0  0  0  0  0  0  0  0  0  0
    3.5724   -0.4125    0.0000 C   0  0  0  0  0  0  0  0  0  0  0  0
    3.5724   -1.2375    0.0000 C   0  0  0  0  0  0  0  0  0  0  0  0
    2.8579   -1.6500    0.0000 C   0  0  0  0  0  0  0  0  0  0  0  0
    2.1434   -1.2375    0.0000 C   0  0  0  0  0  0  0  0  0  0  0  0
    1.4289   -1.6500    0.0000 N   0  0  0  0  0  0  0  0  0  0  0  0
  1  2  1  0  0  0  0
  2  3  1  0  0  0  0
  3  4  2  0  0  0  0
  4  5  1  0  0  0  0
  5  6  1  0  0  0  0
  4  7  1  0  0  0  0
  7  8  2  0  0  0  0
  8  9  1  0  0  0  0
  9 10  2  0  0  0  0
 10 11  1  0  0  0  0
 11 12  2  0  0  0  0
  7 12  1  0  0  0  0
 12 13  1  0  0  0  0
  2 13  2  0  0  0  0
M  END
>  <Catalog ID>
Z397587554

>  <Plate_ID>
2026997-X50-01

>  <Well>
G10

>  <V, µL>
50

>  <Conc, mM>
10

>  <Formula>
C11H11NO

>  <MW>
173.2111

>  <Purity>
95

>  <PO>
5A-64168

>  <MW_salt>
0

>  <Stereochem.data>
Achiral

>  <Geometric.isomer>
None

>  <Chemical name>
(2-methylquinolin-4-yl)methanol

>  <ClogP>
1,94

>  <logS>
-1,76

>  <HBD>
1

>  <HBA>
2

>  <TPSA>
33,12

>  <RotBonds>
1

$$$$

  Mrv1925 04172511382D          

  9  9  0  0  0  0            999 V2000
    0.7145    2.8875    0.0000 N   0  0  0  0  0  0  0  0  0  0  0  0
    0.7145    2.0625    0.0000 C   0  0  0  0  0  0  0  0  0  0  0  0
    0.7145    1.2375    0.0000 C   0  0  0  0  0  0  0  0  0  0  0  0
    1.4289    0.8250    0.0000 C   0  0  0  0  0  0  0  0  0  0  0  0
    1.4289   -0.0000    0.0000 C   0  0  0  0  0  0  0  0  0  0  0  0
    0.7145   -0.4125    0.0000 C   0  0  0  0  0  0  0  0  0  0  0  0
    0.0000    0.0000    0.0000 C   0  0  0  0  0  0  0  0  0  0  0  0
    0.0000    0.8250    0.0000 C   0  0  0  0  0  0  0  0  0  0  0  0
   -0.7145    1.2375    0.0000 O   0  0  0  0  0  0  0  0  0  0  0  0
  1  2  3  0  0  0  0
  2  3  1  0  0  0  0
  3  4  1  0  0  0  0
  4  5  2  0  0  0  0
  5  6  1  0  0  0  0
  6  7  2  0  0  0  0
  7  8  1  0  0  0  0
  3  8  2  0  0  0  0
  8  9  1  0  0  0  0
M  END
>  <Catalog ID>
Z104477750

>  <Plate_ID>
2026997-X50-01

>  <Well>
H10

>  <V, µL>
50

>  <Conc, mM>
10

>  <Formula>
C7H5NO

>  <MW>
119.1207

>  <Purity>
98

>  <PO>
5A-64168

>  <MW_salt>
0

>  <Stereochem.data>
Achiral

>  <Geometric.isomer>
None

>  <Chemical name>
2-hydroxybenzonitrile

>  <ClogP>
1,597

>  <logS>
-1,27

>  <HBD>
1

>  <HBA>
2

>  <TPSA>
44,02

>  <RotBonds>
0

$$$$

  Mrv1925 04172511382D          

 12 13  0  0  0  0            999 V2000
    4.0668    3.1729    0.0000 O   0  0  0  0  0  0  0  0  0  0  0  0
    4.0668    2.3479    0.0000 C   0  0  0  0  0  0  0  0  0  0  0  0
    4.7812    1.9354    0.0000 O   0  0  0  0  0  0  0  0  0  0  0  0
    3.3523    1.9354    0.0000 C   0  0  0  0  0  0  0  0  0  0  0  0
    3.3523    1.1104    0.0000 C   0  0  0  0  0  0  0  0  0  0  0  0
    2.6378    0.6979    0.0000 C   0  0  0  0  0  0  0  0  0  0  0  0
    1.9233    1.1104    0.0000 C   0  0  0  0  0  0  0  0  0  0  0  0
    1.1387    0.8555    0.0000 N   0  0  0  0  0  0  0  0  0  0  0  0
    0.6538    1.5229    0.0000 C   0  0  0  0  0  0  0  0  0  0  0  0
    1.1387    2.1904    0.0000 C   0  0  0  0  0  0  0  0  0  0  0  0
    1.9233    1.9354    0.0000 C   0  0  0  0  0  0  0  0  0  0  0  0
    2.6378    2.3479    0.0000 C   0  0  0  0  0  0  0  0  0  0  0  0
  1  2  2  0  0  0  0
  2  3  1  0  0  0  0
  2  4  1  0  0  0  0
  4  5  2  0  0  0  0
  5  6  1  0  0  0  0
  6  7  2  0  0  0  0
  7  8  1  0  0  0  0
  8  9  1  0  0  0  0
  9 10  2  0  0  0  0
 10 11  1  0  0  0  0
  7 11  1  0  0  0  0
 11 12  2  0  0  0  0
  4 12  1  0  0  0  0
M  END
>  <Catalog ID>
Z1118536235

>  <Plate_ID>
2026997-X50-01

>  <Well>
A11

>  <V, µL>
50

>  <Conc, mM>
10

>  <Formula>
C9H7NO2

>  <MW>
161.1574

>  <Purity>
100

>  <PO>
5A-64168

>  <MW_salt>
0

>  <Stereochem.data>
Achiral

>  <Geometric.isomer>
None

>  <Chemical name>
1H-indole-5-carboxylic acid

>  <ClogP>
2,067

>  <logS>
-2,41

>  <HBD>
2

>  <HBA>
2

>  <TPSA>
53,09

>  <RotBonds>
1

$$$$

  Mrv1925 04172511382D          

 12 13  0  0  0  0            999 V2000
   -0.5837   -1.4124    0.0000 O   0  0  0  0  0  0  0  0  0  0  0  0
   -0.1712   -0.6979    0.0000 C   0  0  0  0  0  0  0  0  0  0  0  0
   -0.5837    0.0165    0.0000 O   0  0  0  0  0  0  0  0  0  0  0  0
    0.6538   -0.6979    0.0000 C   0  0  0  0  0  0  0  0  0  0  0  0
    1.1387   -0.0305    0.0000 C   0  0  0  0  0  0  0  0  0  0  0  0
    1.9233   -0.2854    0.0000 C   0  0  0  0  0  0  0  0  0  0  0  0
    2.6378    0.1271    0.0000 C   0  0  0  0  0  0  0  0  0  0  0  0
    3.3523   -0.2854    0.0000 C   0  0  0  0  0  0  0  0  0  0  0  0
    3.3523   -1.1104    0.0000 C   0  0  0  0  0  0  0  0  0  0  0  0
    2.6378   -1.5229    0.0000 C   0  0  0  0  0  0  0  0  0  0  0  0
    1.9233   -1.1104    0.0000 C   0  0  0  0  0  0  0  0  0  0  0  0
    1.1387   -1.3654    0.0000 O   0  0  0  0  0  0  0  0  0  0  0  0
  1  2  2  0  0  0  0
  2  3  1  0  0  0  0
  2  4  1  0  0  0  0
  4  5  2  0  0  0  0
  5  6  1  0  0  0  0
  6  7  1  0  0  0  0
  7  8  2  0  0  0  0
  8  9  1  0  0  0  0
  9 10  2  0  0  0  0
 10 11  1  0  0  0  0
  6 11  2  0  0  0  0
 11 12  1  0  0  0  0
  4 12  1  0  0  0  0
M  END
>  <Catalog ID>
Z56839706

>  <Plate_ID>
2026997-X50-01

>  <Well>
B11

>  <V, µL>
50

>  <Conc, mM>
10

>  <Formula>
C9H6O3

>  <MW>
162.1421

>  <Purity>
95

>  <PO>
5A-64168

>  <MW_salt>
0

>  <Stereochem.data>
Achiral

>  <Geometric.isomer>
None

>  <Chemical name>
1-benzofuran-2-carboxylic acid

>  <ClogP>
2,445

>  <logS>
-2,61

>  <HBD>
1

>  <HBA>
2

>  <TPSA>
50,44

>  <RotBonds>
1

$$$$

  Mrv1925 04172511382D          

 10 10  0  0  0  0            999 V2000
    0.0000    3.3000    0.0000 C   0  0  0  0  0  0  0  0  0  0  0  0
    0.0000    2.4750    0.0000 C   0  0  0  0  0  0  0  0  0  0  0  0
    0.7145    2.0625    0.0000 O   0  0  0  0  0  0  0  0  0  0  0  0
    0.7145    1.2375    0.0000 C   0  0  0  0  0  0  0  0  0  0  0  0
    1.4289    0.8250    0.0000 C   0  0  0  0  0  0  0  0  0  0  0  0
    1.4289   -0.0000    0.0000 C   0  0  0  0  0  0  0  0  0  0  0  0
    0.7145   -0.4125    0.0000 C   0  0  0  0  0  0  0  0  0  0  0  0
    0.0000    0.0000    0.0000 C   0  0  0  0  0  0  0  0  0  0  0  0
    0.0000    0.8250    0.0000 C   0  0  0  0  0  0  0  0  0  0  0  0
   -0.7145    1.2375    0.0000 O   0  0  0  0  0  0  0  0  0  0  0  0
  1  2  1  0  0  0  0
  2  3  1  0  0  0  0
  3  4  1  0  0  0  0
  4  5  1  0  0  0  0
  5  6  2  0  0  0  0
  6  7  1  0  0  0  0
  7  8  2  0  0  0  0
  8  9  1  0  0  0  0
  4  9  2  0  0  0  0
  9 10  1  0  0  0  0
M  END
>  <Catalog ID>
Z104480244

>  <Plate_ID>
2026997-X50-01

>  <Well>
C11

>  <V, µL>
50

>  <Conc, mM>
10

>  <Formula>
C8H10O2

>  <MW>
138.1638

>  <Purity>
95

>  <PO>
5A-64168

>  <MW_salt>
0

>  <Stereochem.data>
Achiral

>  <Geometric.isomer>
None

>  <Chemical name>
2-ethoxyphenol

>  <ClogP>
1,853

>  <logS>
-1,35

>  <HBD>
1

>  <HBA>
2

>  <TPSA>
29,46

>  <RotBonds>
2

$$$$

  Mrv1925 04172511382D          

 10 10  0  0  0  0            999 V2000
    0.7145    2.0625    0.0000 N   0  0  0  0  0  0  0  0  0  0  0  0
    0.7145    1.2375    0.0000 C   0  0  0  0  0  0  0  0  0  0  0  0
    1.4289    0.8250    0.0000 C   0  0  0  0  0  0  0  0  0  0  0  0
    1.4289   -0.0000    0.0000 N   0  0  0  0  0  0  0  0  0  0  0  0
    0.7145   -0.4125    0.0000 C   0  0  0  0  0  0  0  0  0  0  0  0
    0.0000    0.0000    0.0000 C   0  0  0  0  0  0  0  0  0  0  0  0
    0.0000    0.8250    0.0000 C   0  0  0  0  0  0  0  0  0  0  0  0
   -0.7145    1.2375    0.0000 C   0  0  0  0  0  0  0  0  0  0  0  0
   -1.4289    0.8250    0.0000 O   0  0  0  0  0  0  0  0  0  0  0  0
   -0.7145    2.0625    0.0000 O   0  0  0  0  0  0  0  0  0  0  0  0
  1  2  1  0  0  0  0
  2  3  1  0  0  0  0
  3  4  2  0  0  0  0
  4  5  1  0  0  0  0
  5  6  2  0  0  0  0
  6  7  1  0  0  0  0
  2  7  2  0  0  0  0
  7  8  1  0  0  0  0
  8  9  2  0  0  0  0
  8 10  1  0  0  0  0
M  END
>  <Catalog ID>
Z414314668

>  <Plate_ID>
2026997-X50-01

>  <Well>
D11

>  <V, µL>
50

>  <Conc, mM>
10

>  <Formula>
C6H6N2O2

>  <MW>
138.124

>  <Purity>
100

>  <PO>
5A-64168

>  <MW_salt>
0

>  <Stereochem.data>
Achiral

>  <Geometric.isomer>
None

>  <Chemical name>
3-aminopyridine-4-carboxylic acid

>  <ClogP>
0,747

>  <logS>
-0,199

>  <HBD>
2

>  <HBA>
4

>  <TPSA>
76,21

>  <RotBonds>
1

$$$$

  Mrv1925 04172511382D          

 15 16  0  0  0  0            999 V2000
    1.4289    0.0000    0.0000 O   0  0  0  0  0  0  0  0  0  0  0  0
    2.1434   -0.4125    0.0000 C   0  0  0  0  0  0  0  0  0  0  0  0
    2.1434   -1.2375    0.0000 C   0  0  0  0  0  0  0  0  0  0  0  0
    2.8579   -1.6500    0.0000 C   0  0  0  0  0  0  0  0  0  0  0  0
    2.8579   -2.4750    0.0000 C   0  0  0  0  0  0  0  0  0  0  0  0
    2.1434   -2.8875    0.0000 C   0  0  0  0  0  0  0  0  0  0  0  0
    1.4289   -2.4750    0.0000 C   0  0  0  0  0  0  0  0  0  0  0  0
    0.7145   -2.8875    0.0000 O   0  0  0  0  0  0  0  0  0  0  0  0
    1.4289   -1.6500    0.0000 C   0  0  0  0  0  0  0  0  0  0  0  0
    2.8579    0.0000    0.0000 N   0  0  0  0  0  0  0  0  0  0  0  0
    2.8579    0.8250    0.0000 C   0  0  0  0  0  0  0  0  0  0  0  0
    3.5724    1.2375    0.0000 C   0  0  0  0  0  0  0  0  0  0  0  0
    4.2868    0.8250    0.0000 O   0  0  0  0  0  0  0  0  0  0  0  0
    4.2868    0.0000    0.0000 C   0  0  0  0  0  0  0  0  0  0  0  0
    3.5724   -0.4125    0.0000 C   0  0  0  0  0  0  0  0  0  0  0  0
  1  2  2  0  0  0  0
  2  3  1  0  0  0  0
  3  4  1  0  0  0  0
  4  5  2  0  0  0  0
  5  6  1  0  0  0  0
  6  7  2  0  0  0  0
  7  8  1  0  0  0  0
  7  9  1  0  0  0  0
  3  9  2  0  0  0  0
  2 10  1  0  0  0  0
 10 11  1  0  0  0  0
 11 12  1  0  0  0  0
 12 13  1  0  0  0  0
 13 14  1  0  0  0  0
 14 15  1  0  0  0  0
 10 15  1  0  0  0  0
M  END
>  <Catalog ID>
Z31721188

>  <Plate_ID>
2026997-X50-01

>  <Well>
E11

>  <V, µL>
50

>  <Conc, mM>
10

>  <Formula>
C11H13NO3

>  <MW>
207.2258

>  <Purity>
100

>  <PO>
5A-64168

>  <MW_salt>
0

>  <Stereochem.data>
Achiral

>  <Geometric.isomer>
None

>  <Chemical name>
3-(morpholine-4-carbonyl)phenol

>  <ClogP>
0,646

>  <logS>
-1,779

>  <HBD>
1

>  <HBA>
3

>  <TPSA>
49,77

>  <RotBonds>
1

$$$$

  Mrv1925 04172511382D          

 11 12  0  0  0  0            999 V2000
    1.4289   -2.4750    0.0000 O   0  0  0  0  0  0  0  0  0  0  0  0
    1.4289   -1.6500    0.0000 C   0  0  0  0  0  0  0  0  0  0  0  0
    0.7145   -1.2375    0.0000 C   0  0  0  0  0  0  0  0  0  0  0  0
    0.7145   -0.4125    0.0000 C   0  0  0  0  0  0  0  0  0  0  0  0
    1.4289    0.0000    0.0000 C   0  0  0  0  0  0  0  0  0  0  0  0
    2.1434   -0.4125    0.0000 C   0  0  0  0  0  0  0  0  0  0  0  0
    2.8579    0.0000    0.0000 C   0  0  0  0  0  0  0  0  0  0  0  0
    3.5724   -0.4125    0.0000 C   0  0  0  0  0  0  0  0  0  0  0  0
    3.5724   -1.2375    0.0000 C   0  0  0  0  0  0  0  0  0  0  0  0
    2.8579   -1.6500    0.0000 N   0  0  0  0  0  0  0  0  0  0  0  0
    2.1434   -1.2375    0.0000 C   0  0  0  0  0  0  0  0  0  0  0  0
  1  2  1  0  0  0  0
  2  3  1  0  0  0  0
  3  4  2  0  0  0  0
  4  5  1  0  0  0  0
  5  6  2  0  0  0  0
  6  7  1  0  0  0  0
  7  8  2  0  0  0  0
  8  9  1  0  0  0  0
  9 10  2  0  0  0  0
 10 11  1  0  0  0  0
  2 11  2  0  0  0  0
  6 11  1  0  0  0  0
M  END
>  <Catalog ID>
Z56926518

>  <Plate_ID>
2026997-X50-01

>  <Well>
F11

>  <V, µL>
50

>  <Conc, mM>
10

>  <Formula>
C9H7NO

>  <MW>
145.158

>  <Purity>
100

>  <PO>
5A-64168

>  <MW_salt>
0

>  <Stereochem.data>
Achiral

>  <Geometric.isomer>
None

>  <Chemical name>
quinolin-8-ol

>  <ClogP>
2,077

>  <logS>
-1,62

>  <HBD>
1

>  <HBA>
2

>  <TPSA>
33,12

>  <RotBonds>
0

$$$$

  Mrv1925 04172511382D          

 10 10  0  0  0  0            999 V2000
   -0.7145    3.7125    0.0000 O   0  0  0  0  0  0  0  0  0  0  0  0
    0.0000    3.3000    0.0000 C   0  0  0  0  0  0  0  0  0  0  0  0
    0.0000    2.4750    0.0000 C   0  0  0  0  0  0  0  0  0  0  0  0
    0.7145    2.0625    0.0000 O   0  0  0  0  0  0  0  0  0  0  0  0
    0.7145    1.2375    0.0000 C   0  0  0  0  0  0  0  0  0  0  0  0
    1.4289    0.8250    0.0000 C   0  0  0  0  0  0  0  0  0  0  0  0
    1.4289   -0.0000    0.0000 C   0  0  0  0  0  0  0  0  0  0  0  0
    0.7145   -0.4125    0.0000 C   0  0  0  0  0  0  0  0  0  0  0  0
    0.0000    0.0000    0.0000 C   0  0  0  0  0  0  0  0  0  0  0  0
    0.0000    0.8250    0.0000 C   0  0  0  0  0  0  0  0  0  0  0  0
  1  2  1  0  0  0  0
  2  3  1  0  0  0  0
  3  4  1  0  0  0  0
  4  5  1  0  0  0  0
  5  6  1  0  0  0  0
  6  7  2  0  0  0  0
  7  8  1  0  0  0  0
  8  9  2  0  0  0  0
  9 10  1  0  0  0  0
  5 10  2  0  0  0  0
M  END
>  <Catalog ID>
Z104473570

>  <Plate_ID>
2026997-X50-01

>  <Well>
G11

>  <V, µL>
50

>  <Conc, mM>
10

>  <Formula>
C8H10O2

>  <MW>
138.1638

>  <Purity>
98

>  <PO>
5A-64168

>  <MW_salt>
0

>  <Stereochem.data>
Achiral

>  <Geometric.isomer>
None

>  <Chemical name>
2-phenoxyethan-1-ol

>  <ClogP>
1,188

>  <logS>
-1,26

>  <HBD>
1

>  <HBA>
2

>  <TPSA>
29,46

>  <RotBonds>
3

$$$$

  Mrv1925 04172511382D          

 14 15  0  0  0  0            999 V2000
   -2.7131    7.1387    0.0000 C   0  0  0  0  0  0  0  0  0  0  0  0
   -2.3776    6.3850    0.0000 C   0  0  0  0  0  0  0  0  0  0  0  0
   -2.8625    5.7176    0.0000 N   0  0  0  0  0  0  0  0  0  0  0  0
   -2.6075    4.9330    0.0000 C   0  0  0  0  0  0  0  0  0  0  0  0
   -3.2750    4.4480    0.0000 C   0  0  0  0  0  0  0  0  0  0  0  0
   -3.9424    4.9330    0.0000 C   0  0  0  0  0  0  0  0  0  0  0  0
   -3.6875    5.7176    0.0000 N   0  0  0  0  0  0  0  0  0  0  0  0
   -3.2750    3.6230    0.0000 N   0  0  0  0  0  0  0  0  0  0  0  0
   -2.5605    3.2105    0.0000 C   0  0  0  0  0  0  0  0  0  0  0  0
   -1.8460    3.6230    0.0000 O   0  0  0  0  0  0  0  0  0  0  0  0
   -2.5605    2.3855    0.0000 C   0  0  0  0  0  0  0  0  0  0  0  0
   -1.9771    1.8022    0.0000 C   0  0  0  0  0  0  0  0  0  0  0  0
   -2.5605    1.2188    0.0000 C   0  0  0  0  0  0  0  0  0  0  0  0
   -3.1439    1.8022    0.0000 C   0  0  0  0  0  0  0  0  0  0  0  0
  1  2  1  0  0  0  0
  2  3  1  0  0  0  0
  3  4  1  0  0  0  0
  4  5  2  0  0  0  0
  5  6  1  0  0  0  0
  6  7  2  0  0  0  0
  3  7  1  0  0  0  0
  5  8  1  0  0  0  0
  8  9  1  0  0  0  0
  9 10  2  0  0  0  0
  9 11  1  0  0  0  0
 11 12  1  0  0  0  0
 12 13  1  0  0  0  0
 13 14  1  0  0  0  0
 11 14  1  0  0  0  0
M  END
>  <Catalog ID>
Z373768900

>  <Plate_ID>
2026997-X50-01

>  <Well>
H11

>  <V, µL>
50

>  <Conc, mM>
10

>  <Formula>
C10H15N3O

>  <MW>
193.2456

>  <Purity>
100

>  <PO>
5A-64168

>  <MW_salt>
0

>  <Stereochem.data>
Achiral

>  <Geometric.isomer>
None

>  <Chemical name>
N-(1-ethyl-1H-pyrazol-4-yl)cyclobutanecarboxamide

>  <ClogP>
1,125

>  <logS>
-1,18

>  <HBD>
1

>  <HBA>
2

>  <TPSA>
46,92

>  <RotBonds>
3

$$$$

  Mrv1925 04172511382D          

 10 11  0  0  0  0            999 V2000
   -0.1712   -0.6979    0.0000 C   0  0  0  0  0  0  0  0  0  0  0  0
    0.6538   -0.6979    0.0000 C   0  0  0  0  0  0  0  0  0  0  0  0
    1.1387   -0.0305    0.0000 C   0  0  0  0  0  0  0  0  0  0  0  0
    1.9233   -0.2854    0.0000 C   0  0  0  0  0  0  0  0  0  0  0  0
    2.6378    0.1271    0.0000 C   0  0  0  0  0  0  0  0  0  0  0  0
    3.3523   -0.2854    0.0000 C   0  0  0  0  0  0  0  0  0  0  0  0
    3.3523   -1.1104    0.0000 C   0  0  0  0  0  0  0  0  0  0  0  0
    2.6378   -1.5229    0.0000 C   0  0  0  0  0  0  0  0  0  0  0  0
    1.9233   -1.1104    0.0000 C   0  0  0  0  0  0  0  0  0  0  0  0
    1.1387   -1.3654    0.0000 N   0  0  0  0  0  0  0  0  0  0  0  0
  1  2  1  0  0  0  0
  2  3  2  0  0  0  0
  3  4  1  0  0  0  0
  4  5  1  0  0  0  0
  5  6  2  0  0  0  0
  6  7  1  0  0  0  0
  7  8  2  0  0  0  0
  8  9  1  0  0  0  0
  4  9  2  0  0  0  0
  9 10  1  0  0  0  0
  2 10  1  0  0  0  0
M  END
>  <Catalog ID>
Z57200682

>  <Plate_ID>
2026997-X50-02

>  <Well>
A02

>  <V, µL>
50

>  <Conc, mM>
10

>  <Formula>
C9H9N

>  <MW>
131.1745

>  <Purity>
95

>  <PO>
5A-64168

>  <MW_salt>
0

>  <Stereochem.data>
Achiral

>  <Geometric.isomer>
None

>  <Chemical name>
2-methyl-1H-indole

>  <ClogP>
2,631

>  <logS>
-2,43

>  <HBD>
1

>  <HBA>
0

>  <TPSA>
15,79

>  <RotBonds>
0

$$$$

  Mrv1925 04172511382D          

  9  9  0  0  0  0            999 V2000
   -0.1467    3.1768    0.0000 O   0  0  0  0  0  0  0  0  0  0  0  0
   -0.1467    2.3518    0.0000 C   0  0  0  0  0  0  0  0  0  0  0  0
   -0.8612    1.9393    0.0000 O   0  0  0  0  0  0  0  0  0  0  0  0
    0.5678    1.9393    0.0000 C   0  0  0  0  0  0  0  0  0  0  0  0
    0.5678    1.1143    0.0000 C   0  0  0  0  0  0  0  0  0  0  0  0
    1.2352    0.6294    0.0000 C   0  0  0  0  0  0  0  0  0  0  0  0
    0.9803   -0.1553    0.0000 C   0  0  0  0  0  0  0  0  0  0  0  0
    0.1553   -0.1553    0.0000 C   0  0  0  0  0  0  0  0  0  0  0  0
   -0.0997    0.6294    0.0000 S   0  0  0  0  0  0  0  0  0  0  0  0
  1  2  2  0  0  0  0
  2  3  1  0  0  0  0
  2  4  1  0  0  0  0
  4  5  1  0  0  0  0
  5  6  2  0  0  0  0
  6  7  1  0  0  0  0
  7  8  2  0  0  0  0
  8  9  1  0  0  0  0
  5  9  1  0  0  0  0
M  END
>  <Catalog ID>
Z104473344

>  <Plate_ID>
2026997-X50-02

>  <Well>
B02

>  <V, µL>
50

>  <Conc, mM>
10

>  <Formula>
C6H6O2S

>  <MW>
142.1756

>  <Purity>
95

>  <PO>
5A-64168

>  <MW_salt>
0

>  <Stereochem.data>
Achiral

>  <Geometric.isomer>
None

>  <Chemical name>
2-(thiophen-2-yl)acetic acid

>  <ClogP>
1,06

>  <logS>
-1,04

>  <HBD>
1

>  <HBA>
2

>  <TPSA>
37,3

>  <RotBonds>
2

$$$$

  Mrv1925 04172511382D          

  8  8  0  0  0  0            999 V2000
    0.7145    2.0625    0.0000 C   0  0  0  0  0  0  0  0  0  0  0  0
    0.7145    1.2375    0.0000 C   0  0  0  0  0  0  0  0  0  0  0  0
    1.4289    0.8250    0.0000 C   0  0  0  0  0  0  0  0  0  0  0  0
    1.4289   -0.0000    0.0000 C   0  0  0  0  0  0  0  0  0  0  0  0
    0.7145   -0.4125    0.0000 C   0  0  0  0  0  0  0  0  0  0  0  0
    0.0000    0.0000    0.0000 C   0  0  0  0  0  0  0  0  0  0  0  0
   -0.7145   -0.4125    0.0000 O   0  0  0  0  0  0  0  0  0  0  0  0
    0.0000    0.8250    0.0000 C   0  0  0  0  0  0  0  0  0  0  0  0
  1  2  1  0  0  0  0
  2  3  1  0  0  0  0
  3  4  2  0  0  0  0
  4  5  1  0  0  0  0
  5  6  2  0  0  0  0
  6  7  1  0  0  0  0
  6  8  1  0  0  0  0
  2  8  2  0  0  0  0
M  END
>  <Catalog ID>
Z104473820

>  <Plate_ID>
2026997-X50-02

>  <Well>
C02

>  <V, µL>
50

>  <Conc, mM>
10

>  <Formula>
C7H8O

>  <MW>
108.1378

>  <Purity>
95

>  <PO>
5A-64168

>  <MW_salt>
0

>  <Stereochem.data>
Achiral

>  <Geometric.isomer>
None

>  <Chemical name>
3-methylphenol

>  <ClogP>
1,974

>  <logS>
-1,46

>  <HBD>
1

>  <HBA>
1

>  <TPSA>
20,23

>  <RotBonds>
0

$$$$

  Mrv1925 04172511382D          

 13 14  0  0  0  0            999 V2000
   -0.1781   -3.1062    0.0000 C   0  0  0  0  0  0  0  0  0  0  0  0
    0.0768   -2.3215    0.0000 O   0  0  0  0  0  0  0  0  0  0  0  0
    0.8838   -2.1500    0.0000 C   0  0  0  0  0  0  0  0  0  0  0  0
    1.4358   -2.7631    0.0000 O   0  0  0  0  0  0  0  0  0  0  0  0
    1.1387   -1.3654    0.0000 C   0  0  0  0  0  0  0  0  0  0  0  0
    0.6538   -0.6979    0.0000 C   0  0  0  0  0  0  0  0  0  0  0  0
    1.1387   -0.0305    0.0000 N   0  0  0  0  0  0  0  0  0  0  0  0
    1.9233   -0.2854    0.0000 C   0  0  0  0  0  0  0  0  0  0  0  0
    2.6378    0.1271    0.0000 N   0  0  0  0  0  0  0  0  0  0  0  0
    3.3523   -0.2854    0.0000 C   0  0  0  0  0  0  0  0  0  0  0  0
    3.3523   -1.1104    0.0000 C   0  0  0  0  0  0  0  0  0  0  0  0
    2.6378   -1.5229    0.0000 C   0  0  0  0  0  0  0  0  0  0  0  0
    1.9233   -1.1104    0.0000 C   0  0  0  0  0  0  0  0  0  0  0  0
  1  2  1  0  0  0  0
  2  3  1  0  0  0  0
  3  4  2  0  0  0  0
  3  5  1  0  0  0  0
  5  6  2  0  0  0  0
  6  7  1  0  0  0  0
  7  8  1  0  0  0  0
  8  9  1  0  0  0  0
  9 10  2  0  0  0  0
 10 11  1  0  0  0  0
 11 12  2  0  0  0  0
 12 13  1  0  0  0  0
  5 13  1  0  0  0  0
  8 13  2  0  0  0  0
M  END
>  <Catalog ID>
Z1079133092

>  <Plate_ID>
2026997-X50-02

>  <Well>
D02

>  <V, µL>
50

>  <Conc, mM>
10

>  <Formula>
C9H8N2O2

>  <MW>
176.172

>  <Purity>
100

>  <PO>
5A-64168

>  <MW_salt>
0

>  <Stereochem.data>
Achiral

>  <Geometric.isomer>
None

>  <Chemical name>
methyl 1H-pyrrolo[2,3-b]pyridine-3-carboxylate

>  <ClogP>
1,321

>  <logS>
-1,91

>  <HBD>
1

>  <HBA>
2

>  <TPSA>
54,98

>  <RotBonds>
2

$$$$

  Mrv1925 04172511382D          

 10 10  0  0  0  0            999 V2000
    0.0000    2.4750    0.0000 O   0  0  0  0  0  0  0  0  0  0  0  0
    0.7145    2.0625    0.0000 C   0  0  0  0  0  0  0  0  0  0  0  0
    1.4289    2.4750    0.0000 O   0  0  0  0  0  0  0  0  0  0  0  0
    0.7145    1.2375    0.0000 C   0  0  0  0  0  0  0  0  0  0  0  0
    1.4289    0.8250    0.0000 C   0  0  0  0  0  0  0  0  0  0  0  0
    1.4289   -0.0000    0.0000 N   0  0  0  0  0  0  0  0  0  0  0  0
    0.7145   -0.4125    0.0000 C   0  0  0  0  0  0  0  0  0  0  0  0
    0.0000    0.0000    0.0000 C   0  0  0  0  0  0  0  0  0  0  0  0
   -0.7145   -0.4125    0.0000 O   0  0  0  0  0  0  0  0  0  0  0  0
    0.0000    0.8250    0.0000 C   0  0  0  0  0  0  0  0  0  0  0  0
  1  2  2  0  0  0  0
  2  3  1  0  0  0  0
  2  4  1  0  0  0  0
  4  5  1  0  0  0  0
  5  6  2  0  0  0  0
  6  7  1  0  0  0  0
  7  8  2  0  0  0  0
  8  9  1  0  0  0  0
  8 10  1  0  0  0  0
  4 10  2  0  0  0  0
M  END
>  <Catalog ID>
Z57124104

>  <Plate_ID>
2026997-X50-02

>  <Well>
E02

>  <V, µL>
50

>  <Conc, mM>
10

>  <Formula>
C6H5NO3

>  <MW>
139.1088

>  <Purity>
100

>  <PO>
5A-64168

>  <MW_salt>
0

>  <Stereochem.data>
Achiral

>  <Geometric.isomer>
None

>  <Chemical name>
5-hydroxypyridine-3-carboxylic acid

>  <ClogP>
1,138

>  <logS>
0,02

>  <HBD>
2

>  <HBA>
4

>  <TPSA>
70,42

>  <RotBonds>
1

$$$$

  Mrv1925 04172511382D          

  8  8  0  0  0  0            999 V2000
   -0.1467    2.3518    0.0000 O   0  0  0  0  0  0  0  0  0  0  0  0
    0.5678    1.9393    0.0000 C   0  0  0  0  0  0  0  0  0  0  0  0
    1.2822    2.3518    0.0000 O   0  0  0  0  0  0  0  0  0  0  0  0
    0.5678    1.1143    0.0000 C   0  0  0  0  0  0  0  0  0  0  0  0
    1.2352    0.6294    0.0000 C   0  0  0  0  0  0  0  0  0  0  0  0
    0.9803   -0.1553    0.0000 C   0  0  0  0  0  0  0  0  0  0  0  0
    0.1553   -0.1553    0.0000 C   0  0  0  0  0  0  0  0  0  0  0  0
   -0.0997    0.6294    0.0000 O   0  0  0  0  0  0  0  0  0  0  0  0
  1  2  2  0  0  0  0
  2  3  1  0  0  0  0
  2  4  1  0  0  0  0
  4  5  2  0  0  0  0
  5  6  1  0  0  0  0
  6  7  2  0  0  0  0
  7  8  1  0  0  0  0
  4  8  1  0  0  0  0
M  END
>  <Catalog ID>
Z104473462

>  <Plate_ID>
2026997-X50-02

>  <Well>
F02

>  <V, µL>
50

>  <Conc, mM>
10

>  <Formula>
C5H4O3

>  <MW>
112.0835

>  <Purity>
95

>  <PO>
5A-64168

>  <MW_salt>
0

>  <Stereochem.data>
Achiral

>  <Geometric.isomer>
None

>  <Chemical name>
furan-2-carboxylic acid

>  <ClogP>
1,061

>  <logS>
-0,88

>  <HBD>
1

>  <HBA>
2

>  <TPSA>
50,44

>  <RotBonds>
1

$$$$

  Mrv1925 04172511382D          

 10 10  0  0  0  0            999 V2000
    0.0000    2.4750    0.0000 C   0  0  0  0  0  0  0  0  0  0  0  0
    0.7145    2.0625    0.0000 C   0  0  0  0  0  0  0  0  0  0  0  0
    1.4289    2.4750    0.0000 C   0  0  0  0  0  0  0  0  0  0  0  0
    0.7145    1.2375    0.0000 C   0  0  0  0  0  0  0  0  0  0  0  0
    1.4289    0.8250    0.0000 C   0  0  0  0  0  0  0  0  0  0  0  0
    1.4289   -0.0000    0.0000 C   0  0  0  0  0  0  0  0  0  0  0  0
    0.7145   -0.4125    0.0000 C   0  0  0  0  0  0  0  0  0  0  0  0
    0.7145   -1.2375    0.0000 N   0  0  0  0  0  0  0  0  0  0  0  0
    0.0000    0.0000    0.0000 C   0  0  0  0  0  0  0  0  0  0  0  0
    0.0000    0.8250    0.0000 C   0  0  0  0  0  0  0  0  0  0  0  0
  1  2  1  0  0  0  0
  2  3  1  0  0  0  0
  2  4  1  0  0  0  0
  4  5  1  0  0  0  0
  5  6  2  0  0  0  0
  6  7  1  0  0  0  0
  7  8  1  0  0  0  0
  7  9  2  0  0  0  0
  9 10  1  0  0  0  0
  4 10  2  0  0  0  0
M  END
>  <Catalog ID>
Z104476320

>  <Plate_ID>
2026997-X50-02

>  <Well>
G02

>  <V, µL>
50

>  <Conc, mM>
10

>  <Formula>
C9H13N

>  <MW>
135.2062

>  <Purity>
95

>  <PO>
5A-64168

>  <MW_salt>
0

>  <Stereochem.data>
Achiral

>  <Geometric.isomer>
None

>  <Chemical name>
4-(propan-2-yl)aniline

>  <ClogP>
2,342

>  <logS>
-2,66

>  <HBD>
1

>  <HBA>
1

>  <TPSA>
26,02

>  <RotBonds>
1

$$$$

  Mrv1925 04172511382D          

 11 11  0  0  0  0            999 V2000
    0.0000    2.4750    0.0000 C   0  0  0  0  0  0  0  0  0  0  0  0
    0.7145    2.0625    0.0000 O   0  0  0  0  0  0  0  0  0  0  0  0
    0.7145    1.2375    0.0000 C   0  0  0  0  0  0  0  0  0  0  0  0
    1.4289    0.8250    0.0000 C   0  0  0  0  0  0  0  0  0  0  0  0
    1.4289   -0.0000    0.0000 C   0  0  0  0  0  0  0  0  0  0  0  0
    0.7145   -0.4125    0.0000 C   0  0  0  0  0  0  0  0  0  0  0  0
    0.0000    0.0000    0.0000 C   0  0  0  0  0  0  0  0  0  0  0  0
    0.0000    0.8250    0.0000 C   0  0  0  0  0  0  0  0  0  0  0  0
   -0.7145    1.2375    0.0000 C   0  0  0  0  0  0  0  0  0  0  0  0
   -0.7145    2.0625    0.0000 O   0  0  0  0  0  0  0  0  0  0  0  0
   -1.4289    0.8250    0.0000 O   0  0  0  0  0  0  0  0  0  0  0  0
  1  2  1  0  0  0  0
  2  3  1  0  0  0  0
  3  4  1  0  0  0  0
  4  5  2  0  0  0  0
  5  6  1  0  0  0  0
  6  7  2  0  0  0  0
  7  8  1  0  0  0  0
  3  8  2  0  0  0  0
  8  9  1  0  0  0  0
  9 10  2  0  0  0  0
  9 11  1  0  0  0  0
M  END
>  <Catalog ID>
Z57127524

>  <Plate_ID>
2026997-X50-02

>  <Well>
H02

>  <V, µL>
50

>  <Conc, mM>
10

>  <Formula>
C8H8O3

>  <MW>
152.1473

>  <Purity>
95

>  <PO>
5A-64168

>  <MW_salt>
0

>  <Stereochem.data>
Achiral

>  <Geometric.isomer>
None

>  <Chemical name>
2-methoxybenzoic acid

>  <ClogP>
1,594

>  <logS>
-1,55

>  <HBD>
1

>  <HBA>
3

>  <TPSA>
46,53

>  <RotBonds>
2

$$$$

  Mrv1925 04172511382D          

  7  7  0  0  0  0            999 V2000
    0.5678    1.9393    0.0000 O   0  0  0  0  0  0  0  0  0  0  0  0
    0.5678    1.1143    0.0000 C   0  0  0  0  0  0  0  0  0  0  0  0
    1.2352    0.6294    0.0000 C   0  0  0  0  0  0  0  0  0  0  0  0
    0.9803   -0.1553    0.0000 N   0  0  0  0  0  0  0  0  0  0  0  0
    0.1553   -0.1553    0.0000 C   0  0  0  0  0  0  0  0  0  0  0  0
   -0.3297   -0.8227    0.0000 O   0  0  0  0  0  0  0  0  0  0  0  0
   -0.0997    0.6294    0.0000 N   0  0  0  0  0  0  0  0  0  0  0  0
  1  2  2  0  0  0  0
  2  3  1  0  0  0  0
  3  4  1  0  0  0  0
  4  5  1  0  0  0  0
  5  6  2  0  0  0  0
  5  7  1  0  0  0  0
  2  7  1  0  0  0  0
M  END
>  <Catalog ID>
Z57131035

>  <Plate_ID>
2026997-X50-02

>  <Well>
A03

>  <V, µL>
50

>  <Conc, mM>
10

>  <Formula>
C3H4N2O2

>  <MW>
100.0761

>  <Purity>
95

>  <PO>
5A-64168

>  <MW_salt>
0

>  <Stereochem.data>
Achiral

>  <Geometric.isomer>
None

>  <Chemical name>
imidazolidine-2,4-dione

>  <ClogP>
-1,691

>  <logS>
0,26

>  <HBD>
2

>  <HBA>
2

>  <TPSA>
58,2

>  <RotBonds>
0

$$$$

  Mrv1925 04172511382D          

 11 11  0  0  0  0            999 V2000
    0.7145    2.8875    0.0000 N   0  0  0  0  0  0  0  0  0  0  0  0
    0.7145    2.0625    0.0000 S   0  0  0  0  0  0  0  0  0  0  0  0
   -0.1105    2.0625    0.0000 O   0  0  0  0  0  0  0  0  0  0  0  0
    1.5395    2.0625    0.0000 O   0  0  0  0  0  0  0  0  0  0  0  0
    0.7145    1.2375    0.0000 C   0  0  0  0  0  0  0  0  0  0  0  0
    1.4289    0.8250    0.0000 C   0  0  0  0  0  0  0  0  0  0  0  0
    1.4289   -0.0000    0.0000 C   0  0  0  0  0  0  0  0  0  0  0  0
    0.7145   -0.4125    0.0000 C   0  0  0  0  0  0  0  0  0  0  0  0
    0.7145   -1.2375    0.0000 F   0  0  0  0  0  0  0  0  0  0  0  0
    0.0000    0.0000    0.0000 C   0  0  0  0  0  0  0  0  0  0  0  0
    0.0000    0.8250    0.0000 C   0  0  0  0  0  0  0  0  0  0  0  0
  1  2  1  0  0  0  0
  2  3  2  0  0  0  0
  2  4  2  0  0  0  0
  2  5  1  0  0  0  0
  5  6  1  0  0  0  0
  6  7  2  0  0  0  0
  7  8  1  0  0  0  0
  8  9  1  0  0  0  0
  8 10  2  0  0  0  0
 10 11  1  0  0  0  0
  5 11  2  0  0  0  0
M  END
>  <Catalog ID>
Z45415567

>  <Plate_ID>
2026997-X50-02

>  <Well>
B03

>  <V, µL>
50

>  <Conc, mM>
10

>  <Formula>
C6H6FNO2S

>  <MW>
175.1807

>  <Purity>
100

>  <PO>
5A-64168

>  <MW_salt>
0

>  <Stereochem.data>
Achiral

>  <Geometric.isomer>
None

>  <Chemical name>
4-fluorobenzene-1-sulfonamide

>  <ClogP>
0,694

>  <logS>
-1,62

>  <HBD>
1

>  <HBA>
2

>  <TPSA>
60,16

>  <RotBonds>
1

$$$$

  Mrv1925 04172511382D          

 13 14  0  0  0  0            999 V2000
   -0.5837   -1.4124    0.0000 O   0  0  0  0  0  0  0  0  0  0  0  0
   -0.1712   -0.6979    0.0000 C   0  0  0  0  0  0  0  0  0  0  0  0
   -0.5837    0.0165    0.0000 O   0  0  0  0  0  0  0  0  0  0  0  0
    0.6538   -0.6979    0.0000 C   0  0  0  0  0  0  0  0  0  0  0  0
    1.1387   -0.0305    0.0000 C   0  0  0  0  0  0  0  0  0  0  0  0
    1.9233   -0.2854    0.0000 C   0  0  0  0  0  0  0  0  0  0  0  0
    2.6378    0.1271    0.0000 C   0  0  0  0  0  0  0  0  0  0  0  0
    2.6378    0.9521    0.0000 Cl  0  0  0  0  0  0  0  0  0  0  0  0
    3.3523   -0.2854    0.0000 C   0  0  0  0  0  0  0  0  0  0  0  0
    3.3523   -1.1104    0.0000 C   0  0  0  0  0  0  0  0  0  0  0  0
    2.6378   -1.5229    0.0000 C   0  0  0  0  0  0  0  0  0  0  0  0
    1.9233   -1.1104    0.0000 C   0  0  0  0  0  0  0  0  0  0  0  0
    1.1387   -1.3654    0.0000 N   0  0  0  0  0  0  0  0  0  0  0  0
  1  2  2  0  0  0  0
  2  3  1  0  0  0  0
  2  4  1  0  0  0  0
  4  5  2  0  0  0  0
  5  6  1  0  0  0  0
  6  7  2  0  0  0  0
  7  8  1  0  0  0  0
  7  9  1  0  0  0  0
  9 10  2  0  0  0  0
 10 11  1  0  0  0  0
 11 12  2  0  0  0  0
  6 12  1  0  0  0  0
 12 13  1  0  0  0  0
  4 13  1  0  0  0  0
M  END
>  <Catalog ID>
Z119989536

>  <Plate_ID>
2026997-X50-02

>  <Well>
C03

>  <V, µL>
50

>  <Conc, mM>
10

>  <Formula>
C9H6ClNO2

>  <MW>
195.6024

>  <Purity>
100

>  <PO>
5A-64168

>  <MW_salt>
0

>  <Stereochem.data>
Achiral

>  <Geometric.isomer>
None

>  <Chemical name>
4-chloro-1H-indole-2-carboxylic acid

>  <ClogP>
2,925

>  <logS>
-3,42

>  <HBD>
2

>  <HBA>
2

>  <TPSA>
53,09

>  <RotBonds>
1

$$$$

  Mrv1925 04172511382D          

 10 10  0  0  0  0            999 V2000
   -0.1467    3.1768    0.0000 N   0  0  0  0  0  0  0  0  0  0  0  0
   -0.1467    2.3518    0.0000 C   0  0  0  0  0  0  0  0  0  0  0  0
   -0.8612    1.9393    0.0000 O   0  0  0  0  0  0  0  0  0  0  0  0
    0.5678    1.9393    0.0000 C   0  0  0  0  0  0  0  0  0  0  0  0
    0.5678    1.1143    0.0000 N   0  0  0  0  0  0  0  0  0  0  0  0
    1.2352    0.6294    0.0000 C   0  0  0  0  0  0  0  0  0  0  0  0
    0.9803   -0.1553    0.0000 C   0  0  0  0  0  0  0  0  0  0  0  0
    0.1553   -0.1553    0.0000 C   0  0  0  0  0  0  0  0  0  0  0  0
   -0.0997    0.6294    0.0000 C   0  0  0  0  0  0  0  0  0  0  0  0
   -0.8843    0.8843    0.0000 O   0  0  0  0  0  0  0  0  0  0  0  0
  1  2  1  0  0  0  0
  2  3  2  0  0  0  0
  2  4  1  0  0  0  0
  4  5  1  0  0  0  0
  5  6  1  0  0  0  0
  6  7  1  0  0  0  0
  7  8  1  0  0  0  0
  8  9  1  0  0  0  0
  5  9  1  0  0  0  0
  9 10  2  0  0  0  0
M  END
>  <Catalog ID>
Z56865289

>  <Plate_ID>
2026997-X50-02

>  <Well>
D03

>  <V, µL>
50

>  <Conc, mM>
10

>  <Formula>
C6H10N2O2

>  <MW>
142.1558

>  <Purity>
95

>  <PO>
5A-64168

>  <MW_salt>
0

>  <Stereochem.data>
Achiral

>  <Geometric.isomer>
None

>  <Chemical name>
2-(2-oxopyrrolidin-1-yl)acetamide

>  <ClogP>
-1,182

>  <logS>
-0,15

>  <HBD>
1

>  <HBA>
2

>  <TPSA>
63,4

>  <RotBonds>
2

$$$$

  Mrv1925 04172511382D          

 10 11  0  0  0  0            999 V2000
   -0.1712   -0.6979    0.0000 N   0  0  0  0  0  0  0  0  0  0  0  0
    0.6538   -0.6979    0.0000 C   0  0  0  0  0  0  0  0  0  0  0  0
    1.1387   -0.0305    0.0000 N   0  0  0  0  0  0  0  0  0  0  0  0
    1.9233   -0.2854    0.0000 C   0  0  0  0  0  0  0  0  0  0  0  0
    2.6378    0.1271    0.0000 C   0  0  0  0  0  0  0  0  0  0  0  0
    3.3523   -0.2854    0.0000 C   0  0  0  0  0  0  0  0  0  0  0  0
    3.3523   -1.1104    0.0000 C   0  0  0  0  0  0  0  0  0  0  0  0
    2.6378   -1.5229    0.0000 C   0  0  0  0  0  0  0  0  0  0  0  0
    1.9233   -1.1104    0.0000 C   0  0  0  0  0  0  0  0  0  0  0  0
    1.1387   -1.3654    0.0000 N   0  0  0  0  0  0  0  0  0  0  0  0
  1  2  1  0  0  0  0
  2  3  2  0  0  0  0
  3  4  1  0  0  0  0
  4  5  1  0  0  0  0
  5  6  2  0  0  0  0
  6  7  1  0  0  0  0
  7  8  2  0  0  0  0
  8  9  1  0  0  0  0
  4  9  2  0  0  0  0
  9 10  1  0  0  0  0
  2 10  1  0  0  0  0
M  END
>  <Catalog ID>
Z104378302

>  <Plate_ID>
2026997-X50-02

>  <Well>
E03

>  <V, µL>
50

>  <Conc, mM>
10

>  <Formula>
C7H7N3

>  <MW>
133.1506

>  <Purity>
95

>  <PO>
5A-64168

>  <MW_salt>
0

>  <Stereochem.data>
Achiral

>  <Geometric.isomer>
None

>  <Chemical name>
1H-1,3-benzodiazol-2-amine

>  <ClogP>
1,238

>  <logS>
-2,35

>  <HBD>
2

>  <HBA>
2

>  <TPSA>
54,7

>  <RotBonds>
0

$$$$

  Mrv1925 04172511382D          

 10 10  0  0  0  0            999 V2000
    0.0000    3.3000    0.0000 N   0  0  0  0  0  0  0  0  0  0  0  0
    0.0000    2.4750    0.0000 N   0  0  0  0  0  0  0  0  0  0  0  0
    0.7145    2.0625    0.0000 C   0  0  0  0  0  0  0  0  0  0  0  0
    1.4289    2.4750    0.0000 O   0  0  0  0  0  0  0  0  0  0  0  0
    0.7145    1.2375    0.0000 C   0  0  0  0  0  0  0  0  0  0  0  0
    1.4289    0.8250    0.0000 C   0  0  0  0  0  0  0  0  0  0  0  0
    1.4289   -0.0000    0.0000 C   0  0  0  0  0  0  0  0  0  0  0  0
    0.7145   -0.4125    0.0000 C   0  0  0  0  0  0  0  0  0  0  0  0
    0.0000    0.0000    0.0000 C   0  0  0  0  0  0  0  0  0  0  0  0
    0.0000    0.8250    0.0000 C   0  0  0  0  0  0  0  0  0  0  0  0
  1  2  1  0  0  0  0
  2  3  1  0  0  0  0
  3  4  2  0  0  0  0
  3  5  1  0  0  0  0
  5  6  1  0  0  0  0
  6  7  2  0  0  0  0
  7  8  1  0  0  0  0
  8  9  2  0  0  0  0
  9 10  1  0  0  0  0
  5 10  2  0  0  0  0
M  END
>  <Catalog ID>
Z56926669

>  <Plate_ID>
2026997-X50-02

>  <Well>
F03

>  <V, µL>
50

>  <Conc, mM>
10

>  <Formula>
C7H8N2O

>  <MW>
136.1512

>  <Purity>
100

>  <PO>
5A-64168

>  <MW_salt>
0

>  <Stereochem.data>
Achiral

>  <Geometric.isomer>
None

>  <Chemical name>
benzohydrazide

>  <ClogP>
0,265

>  <logS>
-1,65

>  <HBD>
2

>  <HBA>
2

>  <TPSA>
55,12

>  <RotBonds>
1

$$$$

  Mrv1925 04172511382D          

 10 10  0  0  0  0            999 V2000
    0.0000    2.4750    0.0000 O   0  0  0  0  0  0  0  0  0  0  0  0
    0.7145    2.0625    0.0000 C   0  0  0  0  0  0  0  0  0  0  0  0
    1.4289    2.4750    0.0000 O   0  0  0  0  0  0  0  0  0  0  0  0
    0.7145    1.2375    0.0000 C   0  0  0  0  0  0  0  0  0  0  0  0
    1.4289    0.8250    0.0000 C   0  0  0  0  0  0  0  0  0  0  0  0
    1.4289   -0.0000    0.0000 C   0  0  0  0  0  0  0  0  0  0  0  0
    0.7145   -0.4125    0.0000 C   0  0  0  0  0  0  0  0  0  0  0  0
    0.0000    0.0000    0.0000 C   0  0  0  0  0  0  0  0  0  0  0  0
    0.0000    0.8250    0.0000 C   0  0  0  0  0  0  0  0  0  0  0  0
   -0.7145    1.2375    0.0000 F   0  0  0  0  0  0  0  0  0  0  0  0
  1  2  2  0  0  0  0
  2  3  1  0  0  0  0
  2  4  1  0  0  0  0
  4  5  1  0  0  0  0
  5  6  2  0  0  0  0
  6  7  1  0  0  0  0
  7  8  2  0  0  0  0
  8  9  1  0  0  0  0
  4  9  2  0  0  0  0
  9 10  1  0  0  0  0
M  END
>  <Catalog ID>
Z57914061

>  <Plate_ID>
2026997-X50-02

>  <Well>
G03

>  <V, µL>
50

>  <Conc, mM>
10

>  <Formula>
C7H5FO2

>  <MW>
140.1118

>  <Purity>
95

>  <PO>
5A-64168

>  <MW_salt>
0

>  <Stereochem.data>
Achiral

>  <Geometric.isomer>
None

>  <Chemical name>
2-fluorobenzoic acid

>  <ClogP>
1,766

>  <logS>
-1,8

>  <HBD>
1

>  <HBA>
2

>  <TPSA>
37,3

>  <RotBonds>
1

$$$$

  Mrv1925 04172511382D          

 11 12  0  0  0  0            999 V2000
    2.7845    0.6979    0.0000 C   0  0  0  0  0  0  0  0  0  0  0  0
    2.0701    1.1104    0.0000 C   0  0  0  0  0  0  0  0  0  0  0  0
    1.3556    0.6979    0.0000 C   0  0  0  0  0  0  0  0  0  0  0  0
    0.6411    1.1104    0.0000 C   0  0  0  0  0  0  0  0  0  0  0  0
   -0.1435    0.8555    0.0000 N   0  0  0  0  0  0  0  0  0  0  0  0
   -0.6284    1.5229    0.0000 C   0  0  0  0  0  0  0  0  0  0  0  0
   -0.1435    2.1904    0.0000 N   0  0  0  0  0  0  0  0  0  0  0  0
    0.6411    1.9354    0.0000 C   0  0  0  0  0  0  0  0  0  0  0  0
    1.3556    2.3479    0.0000 C   0  0  0  0  0  0  0  0  0  0  0  0
    2.0701    1.9354    0.0000 C   0  0  0  0  0  0  0  0  0  0  0  0
    2.7845    2.3479    0.0000 C   0  0  0  0  0  0  0  0  0  0  0  0
  1  2  1  0  0  0  0
  2  3  1  0  0  0  0
  3  4  2  0  0  0  0
  4  5  1  0  0  0  0
  5  6  2  0  0  0  0
  6  7  1  0  0  0  0
  7  8  1  0  0  0  0
  4  8  1  0  0  0  0
  8  9  2  0  0  0  0
  9 10  1  0  0  0  0
  2 10  2  0  0  0  0
 10 11  1  0  0  0  0
M  END
>  <Catalog ID>
Z55928828

>  <Plate_ID>
2026997-X50-02

>  <Well>
H03

>  <V, µL>
50

>  <Conc, mM>
10

>  <Formula>
C9H10N2

>  <MW>
146.1891

>  <Purity>
100

>  <PO>
5A-64168

>  <MW_salt>
0

>  <Stereochem.data>
Achiral

>  <Geometric.isomer>
None

>  <Chemical name>
5,6-dimethyl-1H-1,3-benzodiazole

>  <ClogP>
2,513

>  <logS>
-3

>  <HBD>
1

>  <HBA>
1

>  <TPSA>
28,68

>  <RotBonds>
0

$$$$

  Mrv1925 04172511382D          

 10 10  0  0  0  0            999 V2000
    0.0000    2.4750    0.0000 C   0  0  0  0  0  0  0  0  0  0  0  0
    0.7145    2.0625    0.0000 O   0  0  0  0  0  0  0  0  0  0  0  0
    0.7145    1.2375    0.0000 C   0  0  0  0  0  0  0  0  0  0  0  0
    1.4289    0.8250    0.0000 C   0  0  0  0  0  0  0  0  0  0  0  0
    1.4289   -0.0000    0.0000 C   0  0  0  0  0  0  0  0  0  0  0  0
    0.7145   -0.4125    0.0000 C   0  0  0  0  0  0  0  0  0  0  0  0
    0.7145   -1.2375    0.0000 C   0  0  0  0  0  0  0  0  0  0  0  0
    0.0000    0.0000    0.0000 C   0  0  0  0  0  0  0  0  0  0  0  0
    0.0000    0.8250    0.0000 C   0  0  0  0  0  0  0  0  0  0  0  0
   -0.7145    1.2375    0.0000 N   0  0  0  0  0  0  0  0  0  0  0  0
  1  2  1  0  0  0  0
  2  3  1  0  0  0  0
  3  4  1  0  0  0  0
  4  5  2  0  0  0  0
  5  6  1  0  0  0  0
  6  7  1  0  0  0  0
  6  8  2  0  0  0  0
  8  9  1  0  0  0  0
  3  9  2  0  0  0  0
  9 10  1  0  0  0  0
M  END
>  <Catalog ID>
Z104477476

>  <Plate_ID>
2026997-X50-02

>  <Well>
A04

>  <V, µL>
50

>  <Conc, mM>
10

>  <Formula>
C8H11NO

>  <MW>
137.179

>  <Purity>
95

>  <PO>
5A-64168

>  <MW_salt>
0

>  <Stereochem.data>
Achiral

>  <Geometric.isomer>
None

>  <Chemical name>
2-methoxy-5-methylaniline

>  <ClogP>
1,683

>  <logS>
-1,73

>  <HBD>
1

>  <HBA>
2

>  <TPSA>
35,25

>  <RotBonds>
1

$$$$

  Mrv1925 04172511382D          

  8  8  0  0  0  0            999 V2000
    0.7145    2.0625    0.0000 C   0  0  0  0  0  0  0  0  0  0  0  0
    0.7145    1.2375    0.0000 C   0  0  0  0  0  0  0  0  0  0  0  0
    1.4289    0.8250    0.0000 C   0  0  0  0  0  0  0  0  0  0  0  0
    1.4289   -0.0000    0.0000 C   0  0  0  0  0  0  0  0  0  0  0  0
    0.7145   -0.4125    0.0000 N   0  0  0  0  0  0  0  0  0  0  0  0
    0.0000    0.0000    0.0000 C   0  0  0  0  0  0  0  0  0  0  0  0
   -0.7145   -0.4125    0.0000 N   0  0  0  0  0  0  0  0  0  0  0  0
    0.0000    0.8250    0.0000 C   0  0  0  0  0  0  0  0  0  0  0  0
  1  2  1  0  0  0  0
  2  3  1  0  0  0  0
  3  4  2  0  0  0  0
  4  5  1  0  0  0  0
  5  6  2  0  0  0  0
  6  7  1  0  0  0  0
  6  8  1  0  0  0  0
  2  8  2  0  0  0  0
M  END
>  <Catalog ID>
Z203045032

>  <Plate_ID>
2026997-X50-02

>  <Well>
B04

>  <V, µL>
50

>  <Conc, mM>
10

>  <Formula>
C6H8N2

>  <MW>
108.1411

>  <Purity>
95

>  <PO>
5A-64168

>  <MW_salt>
0

>  <Stereochem.data>
Achiral

>  <Geometric.isomer>
None

>  <Chemical name>
4-methylpyridin-2-amine

>  <ClogP>
0,817

>  <logS>
-1,1

>  <HBD>
1

>  <HBA>
2

>  <TPSA>
38,91

>  <RotBonds>
0

$$$$

  Mrv1925 04172511382D          

 12 13  0  0  0  0            999 V2000
    0.0000   -0.0000    0.0000 N   0  0  0  0  0  0  0  0  0  0  0  0
    0.7145   -0.4125    0.0000 C   0  0  0  0  0  0  0  0  0  0  0  0
    1.4289    0.0000    0.0000 N   0  0  0  0  0  0  0  0  0  0  0  0
    2.1434   -0.4125    0.0000 C   0  0  0  0  0  0  0  0  0  0  0  0
    2.8579    0.0000    0.0000 C   0  0  0  0  0  0  0  0  0  0  0  0
    3.5724   -0.4125    0.0000 C   0  0  0  0  0  0  0  0  0  0  0  0
    3.5724   -1.2375    0.0000 C   0  0  0  0  0  0  0  0  0  0  0  0
    2.8579   -1.6500    0.0000 C   0  0  0  0  0  0  0  0  0  0  0  0
    2.1434   -1.2375    0.0000 C   0  0  0  0  0  0  0  0  0  0  0  0
    1.4289   -1.6500    0.0000 C   0  0  0  0  0  0  0  0  0  0  0  0
    1.4289   -2.4750    0.0000 O   0  0  0  0  0  0  0  0  0  0  0  0
    0.7145   -1.2375    0.0000 N   0  0  0  0  0  0  0  0  0  0  0  0
  1  2  1  0  0  0  0
  2  3  2  0  0  0  0
  3  4  1  0  0  0  0
  4  5  1  0  0  0  0
  5  6  2  0  0  0  0
  6  7  1  0  0  0  0
  7  8  2  0  0  0  0
  8  9  1  0  0  0  0
  4  9  2  0  0  0  0
  9 10  1  0  0  0  0
 10 11  2  0  0  0  0
 10 12  1  0  0  0  0
  2 12  1  0  0  0  0
M  END
>  <Catalog ID>
Z840267872

>  <Plate_ID>
2026997-X50-02

>  <Well>
C04

>  <V, µL>
50

>  <Conc, mM>
10

>  <Formula>
C8H7N3O

>  <MW>
161.1607

>  <Purity>
100

>  <PO>
5A-64168

>  <MW_salt>
0

>  <Stereochem.data>
Achiral

>  <Geometric.isomer>
None

>  <Chemical name>
2-amino-3,4-dihydroquinazolin-4-one

>  <ClogP>
0,153

>  <logS>
-2,89

>  <HBD>
2

>  <HBA>
3

>  <TPSA>
67,48

>  <RotBonds>
0

$$$$

  Mrv1925 04172511382D          

 10 11  0  0  0  0            999 V2000
    4.0668    2.3479    0.0000 O   0  0  0  0  0  0  0  0  0  0  0  0
    3.3523    1.9354    0.0000 C   0  0  0  0  0  0  0  0  0  0  0  0
    3.3523    1.1104    0.0000 C   0  0  0  0  0  0  0  0  0  0  0  0
    2.6378    0.6979    0.0000 C   0  0  0  0  0  0  0  0  0  0  0  0
    1.9233    1.1104    0.0000 C   0  0  0  0  0  0  0  0  0  0  0  0
    1.1387    0.8555    0.0000 O   0  0  0  0  0  0  0  0  0  0  0  0
    0.6538    1.5229    0.0000 C   0  0  0  0  0  0  0  0  0  0  0  0
    1.1387    2.1904    0.0000 O   0  0  0  0  0  0  0  0  0  0  0  0
    1.9233    1.9354    0.0000 C   0  0  0  0  0  0  0  0  0  0  0  0
    2.6378    2.3479    0.0000 C   0  0  0  0  0  0  0  0  0  0  0  0
  1  2  1  0  0  0  0
  2  3  1  0  0  0  0
  3  4  2  0  0  0  0
  4  5  1  0  0  0  0
  5  6  1  0  0  0  0
  6  7  1  0  0  0  0
  7  8  1  0  0  0  0
  8  9  1  0  0  0  0
  5  9  2  0  0  0  0
  9 10  1  0  0  0  0
  2 10  2  0  0  0  0
M  END
>  <Catalog ID>
Z104473678

>  <Plate_ID>
2026997-X50-02

>  <Well>
D04

>  <V, µL>
50

>  <Conc, mM>
10

>  <Formula>
C7H6O3

>  <MW>
138.1207

>  <Purity>
100

>  <PO>
5A-64168

>  <MW_salt>
0

>  <Stereochem.data>
Achiral

>  <Geometric.isomer>
None

>  <Chemical name>
1,3-dioxaindan-5-ol

>  <ClogP>
1,564

>  <logS>
-1,57

>  <HBD>
1

>  <HBA>
3

>  <TPSA>
38,69

>  <RotBonds>
0

$$$$

  Mrv1925 04172511382D          

 10 10  0  0  0  0            999 V2000
    0.7145    2.8875    0.0000 N   0  0  0  0  0  0  0  0  0  0  0  0
    0.7145    2.0625    0.0000 S   0  0  0  0  0  0  0  0  0  0  0  0
   -0.1105    2.0625    0.0000 O   0  0  0  0  0  0  0  0  0  0  0  0
    1.5395    2.0625    0.0000 O   0  0  0  0  0  0  0  0  0  0  0  0
    0.7145    1.2375    0.0000 C   0  0  0  0  0  0  0  0  0  0  0  0
    1.4289    0.8250    0.0000 C   0  0  0  0  0  0  0  0  0  0  0  0
    1.4289   -0.0000    0.0000 C   0  0  0  0  0  0  0  0  0  0  0  0
    0.7145   -0.4125    0.0000 C   0  0  0  0  0  0  0  0  0  0  0  0
    0.0000    0.0000    0.0000 C   0  0  0  0  0  0  0  0  0  0  0  0
    0.0000    0.8250    0.0000 C   0  0  0  0  0  0  0  0  0  0  0  0
  1  2  1  0  0  0  0
  2  3  2  0  0  0  0
  2  4  2  0  0  0  0
  2  5  1  0  0  0  0
  5  6  1  0  0  0  0
  6  7  2  0  0  0  0
  7  8  1  0  0  0  0
  8  9  2  0  0  0  0
  9 10  1  0  0  0  0
  5 10  2  0  0  0  0
M  END
>  <Catalog ID>
Z45415554

>  <Plate_ID>
2026997-X50-02

>  <Well>
E04

>  <V, µL>
50

>  <Conc, mM>
10

>  <Formula>
C6H7NO2S

>  <MW>
157.1903

>  <Purity>
100

>  <PO>
5A-64168

>  <MW_salt>
0

>  <Stereochem.data>
Achiral

>  <Geometric.isomer>
None

>  <Chemical name>
benzenesulfonamide

>  <ClogP>
0,305

>  <logS>
-1,33

>  <HBD>
1

>  <HBA>
2

>  <TPSA>
60,16

>  <RotBonds>
1

$$$$

  Mrv1925 04172511382D          

 12 12  0  0  0  0            999 V2000
    0.7145    2.8875    0.0000 C   0  0  0  0  0  0  0  0  0  0  0  0
    0.7145    2.0625    0.0000 C   0  0  0  0  0  0  0  0  0  0  0  0
   -0.1105    2.0625    0.0000 C   0  0  0  0  0  0  0  0  0  0  0  0
    1.5395    2.0625    0.0000 C   0  0  0  0  0  0  0  0  0  0  0  0
    0.7145    1.2375    0.0000 C   0  0  0  0  0  0  0  0  0  0  0  0
    1.4289    0.8250    0.0000 C   0  0  0  0  0  0  0  0  0  0  0  0
    1.4289   -0.0000    0.0000 C   0  0  0  0  0  0  0  0  0  0  0  0
    0.7145   -0.4125    0.0000 C   0  0  0  0  0  0  0  0  0  0  0  0
    0.7145   -1.2375    0.0000 O   0  0  0  0  0  0  0  0  0  0  0  0
    0.0000    0.0000    0.0000 C   0  0  0  0  0  0  0  0  0  0  0  0
   -0.7145   -0.4125    0.0000 O   0  0  0  0  0  0  0  0  0  0  0  0
    0.0000    0.8250    0.0000 C   0  0  0  0  0  0  0  0  0  0  0  0
  1  2  1  0  0  0  0
  2  3  1  0  0  0  0
  2  4  1  0  0  0  0
  2  5  1  0  0  0  0
  5  6  2  0  0  0  0
  6  7  1  0  0  0  0
  7  8  2  0  0  0  0
  8  9  1  0  0  0  0
  8 10  1  0  0  0  0
 10 11  1  0  0  0  0
 10 12  2  0  0  0  0
  5 12  1  0  0  0  0
M  END
>  <Catalog ID>
Z104476062

>  <Plate_ID>
2026997-X50-02

>  <Well>
F04

>  <V, µL>
50

>  <Conc, mM>
10

>  <Formula>
C10H14O2

>  <MW>
166.217

>  <Purity>
100

>  <PO>
5A-64168

>  <MW_salt>
0

>  <Stereochem.data>
Achiral

>  <Geometric.isomer>
None

>  <Chemical name>
4-tert-butylbenzene-1,2-diol

>  <ClogP>
2,704

>  <logS>
-2,22

>  <HBD>
2

>  <HBA>
2

>  <TPSA>
40,46

>  <RotBonds>
1

$$$$

  Mrv1925 04172511382D          

 13 14  0  0  0  0            999 V2000
    0.0000   -2.4750    0.0000 C   0  0  0  0  0  0  0  0  0  0  0  0
    0.0000   -1.6500    0.0000 C   0  0  0  0  0  0  0  0  0  0  0  0
   -0.7145   -1.2375    0.0000 O   0  0  0  0  0  0  0  0  0  0  0  0
    0.7145   -1.2375    0.0000 C   0  0  0  0  0  0  0  0  0  0  0  0
    0.7145   -0.4125    0.0000 C   0  0  0  0  0  0  0  0  0  0  0  0
    1.4289    0.0000    0.0000 C   0  0  0  0  0  0  0  0  0  0  0  0
    2.1434   -0.4125    0.0000 C   0  0  0  0  0  0  0  0  0  0  0  0
    2.8579    0.0000    0.0000 O   0  0  0  0  0  0  0  0  0  0  0  0
    3.5724   -0.4125    0.0000 C   0  0  0  0  0  0  0  0  0  0  0  0
    3.5724   -1.2375    0.0000 C   0  0  0  0  0  0  0  0  0  0  0  0
    2.8579   -1.6500    0.0000 O   0  0  0  0  0  0  0  0  0  0  0  0
    2.1434   -1.2375    0.0000 C   0  0  0  0  0  0  0  0  0  0  0  0
    1.4289   -1.6500    0.0000 C   0  0  0  0  0  0  0  0  0  0  0  0
  1  2  1  0  0  0  0
  2  3  2  0  0  0  0
  2  4  1  0  0  0  0
  4  5  1  0  0  0  0
  5  6  2  0  0  0  0
  6  7  1  0  0  0  0
  7  8  1  0  0  0  0
  8  9  1  0  0  0  0
  9 10  1  0  0  0  0
 10 11  1  0  0  0  0
 11 12  1  0  0  0  0
  7 12  2  0  0  0  0
 12 13  1  0  0  0  0
  4 13  2  0  0  0  0
M  END
>  <Catalog ID>
Z56854473

>  <Plate_ID>
2026997-X50-02

>  <Well>
G04

>  <V, µL>
50

>  <Conc, mM>
10

>  <Formula>
C10H10O3

>  <MW>
178.1846

>  <Purity>
95

>  <PO>
5A-64168

>  <MW_salt>
0

>  <Stereochem.data>
Achiral

>  <Geometric.isomer>
None

>  <Chemical name>
1-(2,3-dihydro-1,4-benzodioxin-6-yl)ethan-1-one

>  <ClogP>
1,745

>  <logS>
-2,27

>  <HBD>
0

>  <HBA>
3

>  <TPSA>
35,53

>  <RotBonds>
1

$$$$

  Mrv1925 04172511382D          

 11 11  0  0  0  0            999 V2000
    0.7145    2.0625    0.0000 N   0  0  0  0  0  0  0  0  0  0  0  0
    0.7145    1.2375    0.0000 C   0  0  0  0  0  0  0  0  0  0  0  0
    1.4289    0.8250    0.0000 C   0  0  0  0  0  0  0  0  0  0  0  0
    1.4289   -0.0000    0.0000 C   0  0  0  0  0  0  0  0  0  0  0  0
    0.7145   -0.4125    0.0000 C   0  0  0  0  0  0  0  0  0  0  0  0
    0.7145   -1.2375    0.0000 F   0  0  0  0  0  0  0  0  0  0  0  0
    0.0000    0.0000    0.0000 C   0  0  0  0  0  0  0  0  0  0  0  0
    0.0000    0.8250    0.0000 C   0  0  0  0  0  0  0  0  0  0  0  0
   -0.7145    1.2375    0.0000 C   0  0  0  0  0  0  0  0  0  0  0  0
   -0.7145    2.0625    0.0000 O   0  0  0  0  0  0  0  0  0  0  0  0
   -1.4289    0.8250    0.0000 O   0  0  0  0  0  0  0  0  0  0  0  0
  1  2  1  0  0  0  0
  2  3  1  0  0  0  0
  3  4  2  0  0  0  0
  4  5  1  0  0  0  0
  5  6  1  0  0  0  0
  5  7  2  0  0  0  0
  7  8  1  0  0  0  0
  2  8  2  0  0  0  0
  8  9  1  0  0  0  0
  9 10  2  0  0  0  0
  9 11  1  0  0  0  0
M  END
>  <Catalog ID>
Z56946871

>  <Plate_ID>
2026997-X50-02

>  <Well>
H04

>  <V, µL>
50

>  <Conc, mM>
10

>  <Formula>
C7H6FNO2

>  <MW>
155.1264

>  <Purity>
100

>  <PO>
5A-64168

>  <MW_salt>
0

>  <Stereochem.data>
Achiral

>  <Geometric.isomer>
None

>  <Chemical name>
2-amino-5-fluorobenzoic acid

>  <ClogP>
1,478

>  <logS>
-1,63

>  <HBD>
2

>  <HBA>
3

>  <TPSA>
63,32

>  <RotBonds>
1

$$$$

  Mrv1925 04172511382D          

 13 13  0  0  0  0            999 V2000
    0.0000    2.4750    0.0000 C   0  0  0  0  0  0  0  0  0  0  0  0
    0.7145    2.0625    0.0000 O   0  0  0  0  0  0  0  0  0  0  0  0
    0.7145    1.2375    0.0000 C   0  0  0  0  0  0  0  0  0  0  0  0
    1.4289    0.8250    0.0000 C   0  0  0  0  0  0  0  0  0  0  0  0
    1.4289   -0.0000    0.0000 C   0  0  0  0  0  0  0  0  0  0  0  0
    0.7145   -0.4125    0.0000 C   0  0  0  0  0  0  0  0  0  0  0  0
    0.0000    0.0000    0.0000 C   0  0  0  0  0  0  0  0  0  0  0  0
    0.0000    0.8250    0.0000 C   0  0  0  0  0  0  0  0  0  0  0  0
   -0.7145    1.2375    0.0000 O   0  0  0  0  0  0  0  0  0  0  0  0
   -0.7145    2.0625    0.0000 C   0  0  0  0  0  0  0  0  0  0  0  0
    0.7145   -1.2375    0.0000 C   0  0  0  0  0  0  0  0  0  0  0  0
    1.4289   -1.6500    0.0000 O   0  0  0  0  0  0  0  0  0  0  0  0
   -0.0000   -1.6500    0.0000 O   0  0  0  0  0  0  0  0  0  0  0  0
  1  2  1  0  0  0  0
  2  3  1  0  0  0  0
  3  4  1  0  0  0  0
  4  5  2  0  0  0  0
  5  6  1  0  0  0  0
  6  7  2  0  0  0  0
  7  8  1  0  0  0  0
  3  8  2  0  0  0  0
  8  9  1  0  0  0  0
  9 10  1  0  0  0  0
  6 11  1  0  0  0  0
 11 12  2  0  0  0  0
 11 13  1  0  0  0  0
M  END
>  <Catalog ID>
Z104478452

>  <Plate_ID>
2026997-X50-02

>  <Well>
A05

>  <V, µL>
50

>  <Conc, mM>
10

>  <Formula>
C9H10O4

>  <MW>
182.1733

>  <Purity>
100

>  <PO>
5A-64168

>  <MW_salt>
0

>  <Stereochem.data>
Achiral

>  <Geometric.isomer>
None

>  <Chemical name>
3,4-dimethoxybenzoic acid

>  <ClogP>
1,665

>  <logS>
-1,58

>  <HBD>
1

>  <HBA>
4

>  <TPSA>
55,76

>  <RotBonds>
3

$$$$

  Mrv1925 04172511382D          

 10 10  0  0  0  0            999 V2000
    0.0000    2.4750    0.0000 O   0  0  0  0  0  0  0  0  0  0  0  0
    0.7145    2.0625    0.0000 C   0  0  0  0  0  0  0  0  0  0  0  0
    1.4289    2.4750    0.0000 O   0  0  0  0  0  0  0  0  0  0  0  0
    0.7145    1.2375    0.0000 C   0  0  0  0  0  0  0  0  0  0  0  0
    1.4289    0.8250    0.0000 C   0  0  0  0  0  0  0  0  0  0  0  0
    1.4289   -0.0000    0.0000 C   0  0  0  0  0  0  0  0  0  0  0  0
    0.7145   -0.4125    0.0000 C   0  0  0  0  0  0  0  0  0  0  0  0
    0.0000    0.0000    0.0000 C   0  0  0  0  0  0  0  0  0  0  0  0
   -0.7145   -0.4125    0.0000 Cl  0  0  0  0  0  0  0  0  0  0  0  0
    0.0000    0.8250    0.0000 C   0  0  0  0  0  0  0  0  0  0  0  0
  1  2  2  0  0  0  0
  2  3  1  0  0  0  0
  2  4  1  0  0  0  0
  4  5  1  0  0  0  0
  5  6  2  0  0  0  0
  6  7  1  0  0  0  0
  7  8  2  0  0  0  0
  8  9  1  0  0  0  0
  8 10  1  0  0  0  0
  4 10  2  0  0  0  0
M  END
>  <Catalog ID>
Z104474062

>  <Plate_ID>
2026997-X50-02

>  <Well>
B05

>  <V, µL>
50

>  <Conc, mM>
10

>  <Formula>
C7H5ClO2

>  <MW>
156.5664

>  <Purity>
95

>  <PO>
5A-64168

>  <MW_salt>
0

>  <Stereochem.data>
Achiral

>  <Geometric.isomer>
None

>  <Chemical name>
3-chlorobenzoic acid

>  <ClogP>
2,696

>  <logS>
-2,28

>  <HBD>
1

>  <HBA>
2

>  <TPSA>
37,3

>  <RotBonds>
1

$$$$

  Mrv1925 04172511382D          

 11 11  0  0  0  0            999 V2000
    0.0000    3.3000    0.0000 O   0  0  0  0  0  0  0  0  0  0  0  0
    0.0000    2.4750    0.0000 C   0  0  0  0  0  0  0  0  0  0  0  0
   -0.7145    2.0625    0.0000 O   0  0  0  0  0  0  0  0  0  0  0  0
    0.7145    2.0625    0.0000 C   0  0  0  0  0  0  0  0  0  0  0  0
    0.7145    1.2375    0.0000 C   0  0  0  0  0  0  0  0  0  0  0  0
    1.4289    0.8250    0.0000 C   0  0  0  0  0  0  0  0  0  0  0  0
    1.4289   -0.0000    0.0000 C   0  0  0  0  0  0  0  0  0  0  0  0
    0.7145   -0.4125    0.0000 C   0  0  0  0  0  0  0  0  0  0  0  0
    0.0000    0.0000    0.0000 C   0  0  0  0  0  0  0  0  0  0  0  0
    0.0000    0.8250    0.0000 C   0  0  0  0  0  0  0  0  0  0  0  0
   -0.7145    1.2375    0.0000 O   0  0  0  0  0  0  0  0  0  0  0  0
  1  2  2  0  0  0  0
  2  3  1  0  0  0  0
  2  4  1  0  0  0  0
  4  5  1  0  0  0  0
  5  6  1  0  0  0  0
  6  7  2  0  0  0  0
  7  8  1  0  0  0  0
  8  9  2  0  0  0  0
  9 10  1  0  0  0  0
  5 10  2  0  0  0  0
 10 11  1  0  0  0  0
M  END
>  <Catalog ID>
Z608061328

>  <Plate_ID>
2026997-X50-02

>  <Well>
C05

>  <V, µL>
50

>  <Conc, mM>
10

>  <Formula>
C8H8O3

>  <MW>
152.1473

>  <Purity>
95

>  <PO>
5A-64168

>  <MW_salt>
0

>  <Stereochem.data>
Achiral

>  <Geometric.isomer>
None

>  <Chemical name>
2-(2-hydroxyphenyl)acetic acid

>  <ClogP>
0,697

>  <logS>
-0,66

>  <HBD>
2

>  <HBA>
3

>  <TPSA>
57,53

>  <RotBonds>
2

$$$$

  Mrv1925 04172511382D          

 11 11  0  0  0  0            999 V2000
   -0.7145    3.7125    0.0000 O   0  0  0  0  0  0  0  0  0  0  0  0
    0.0000    3.3000    0.0000 C   0  0  0  0  0  0  0  0  0  0  0  0
    0.7145    3.7125    0.0000 O   0  0  0  0  0  0  0  0  0  0  0  0
    0.0000    2.4750    0.0000 C   0  0  0  0  0  0  0  0  0  0  0  0
    0.7145    2.0625    0.0000 C   0  0  0  0  0  0  0  0  0  0  0  0
    0.7145    1.2375    0.0000 C   0  0  0  0  0  0  0  0  0  0  0  0
    1.4289    0.8250    0.0000 C   0  0  0  0  0  0  0  0  0  0  0  0
    1.4289   -0.0000    0.0000 C   0  0  0  0  0  0  0  0  0  0  0  0
    0.7145   -0.4125    0.0000 C   0  0  0  0  0  0  0  0  0  0  0  0
    0.0000    0.0000    0.0000 C   0  0  0  0  0  0  0  0  0  0  0  0
    0.0000    0.8250    0.0000 C   0  0  0  0  0  0  0  0  0  0  0  0
  1  2  2  0  0  0  0
  2  3  1  0  0  0  0
  2  4  1  0  0  0  0
  4  5  1  0  0  0  0
  5  6  1  0  0  0  0
  6  7  1  0  0  0  0
  7  8  1  0  0  0  0
  8  9  1  0  0  0  0
  9 10  1  0  0  0  0
 10 11  1  0  0  0  0
  6 11  1  0  0  0  0
M  END
>  <Catalog ID>
Z104479892

>  <Plate_ID>
2026997-X50-02

>  <Well>
D05

>  <V, µL>
50

>  <Conc, mM>
10

>  <Formula>
C9H16O2

>  <MW>
156.2221

>  <Purity>
95

>  <PO>
5A-64168

>  <MW_salt>
0

>  <Stereochem.data>
Achiral

>  <Geometric.isomer>
None

>  <Chemical name>
3-cyclohexylpropanoic acid

>  <ClogP>
2,985

>  <logS>
-2,8

>  <HBD>
1

>  <HBA>
2

>  <TPSA>
37,3

>  <RotBonds>
3

$$$$

  Mrv1925 04172511382D          

 10 10  0  0  0  0            999 V2000
    0.0000    2.4750    0.0000 O   0  0  0  0  0  0  0  0  0  0  0  0
    0.7145    2.0625    0.0000 C   0  0  0  0  0  0  0  0  0  0  0  0
    1.4289    2.4750    0.0000 O   0  0  0  0  0  0  0  0  0  0  0  0
    0.7145    1.2375    0.0000 C   0  0  0  0  0  0  0  0  0  0  0  0
    1.4289    0.8250    0.0000 C   0  0  0  0  0  0  0  0  0  0  0  0
    1.4289   -0.0000    0.0000 C   0  0  0  0  0  0  0  0  0  0  0  0
    0.7145   -0.4125    0.0000 C   0  0  0  0  0  0  0  0  0  0  0  0
    0.0000    0.0000    0.0000 C   0  0  0  0  0  0  0  0  0  0  0  0
    0.0000    0.8250    0.0000 C   0  0  0  0  0  0  0  0  0  0  0  0
   -0.7145    1.2375    0.0000 Br  0  0  0  0  0  0  0  0  0  0  0  0
  1  2  2  0  0  0  0
  2  3  1  0  0  0  0
  2  4  1  0  0  0  0
  4  5  1  0  0  0  0
  5  6  2  0  0  0  0
  6  7  1  0  0  0  0
  7  8  2  0  0  0  0
  8  9  1  0  0  0  0
  4  9  2  0  0  0  0
  9 10  1  0  0  0  0
M  END
>  <Catalog ID>
Z57825381

>  <Plate_ID>
2026997-X50-02

>  <Well>
E05

>  <V, µL>
50

>  <Conc, mM>
10

>  <Formula>
C7H5BrO2

>  <MW>
201.0174

>  <Purity>
95

>  <PO>
5A-64168

>  <MW_salt>
0

>  <Stereochem.data>
Achiral

>  <Geometric.isomer>
None

>  <Chemical name>
2-bromobenzoic acid

>  <ClogP>
2,196

>  <logS>
-2,65

>  <HBD>
1

>  <HBA>
2

>  <TPSA>
37,3

>  <RotBonds>
1

$$$$

  Mrv1925 04172511382D          

 11 12  0  0  0  0            999 V2000
    1.1270   -2.5070    0.0000 C   0  0  0  0  0  0  0  0  0  0  0  0
    0.3020   -2.5070    0.0000 C   0  0  0  0  0  0  0  0  0  0  0  0
    0.0470   -1.7224    0.0000 N   0  0  0  0  0  0  0  0  0  0  0  0
    0.7145   -1.2375    0.0000 C   0  0  0  0  0  0  0  0  0  0  0  0
    1.3819   -1.7224    0.0000 N   0  0  0  0  0  0  0  0  0  0  0  0
    0.7145   -0.4125    0.0000 C   0  0  0  0  0  0  0  0  0  0  0  0
    0.0000    0.0000    0.0000 C   0  0  0  0  0  0  0  0  0  0  0  0
    0.0000    0.8250    0.0000 C   0  0  0  0  0  0  0  0  0  0  0  0
    0.7145    1.2375    0.0000 N   0  0  0  0  0  0  0  0  0  0  0  0
    1.4289    0.8250    0.0000 C   0  0  0  0  0  0  0  0  0  0  0  0
    1.4289   -0.0000    0.0000 C   0  0  0  0  0  0  0  0  0  0  0  0
  1  2  2  0  0  0  0
  2  3  1  0  0  0  0
  3  4  1  0  0  0  0
  4  5  2  0  0  0  0
  1  5  1  0  0  0  0
  4  6  1  0  0  0  0
  6  7  1  0  0  0  0
  7  8  2  0  0  0  0
  8  9  1  0  0  0  0
  9 10  2  0  0  0  0
 10 11  1  0  0  0  0
  6 11  2  0  0  0  0
M  END
>  <Catalog ID>
Z728187792

>  <Plate_ID>
2026997-X50-02

>  <Well>
F05

>  <V, µL>
50

>  <Conc, mM>
10

>  <Formula>
C8H7N3

>  <MW>
145.1613

>  <Purity>
100

>  <PO>
5A-64168

>  <MW_salt>
0

>  <Stereochem.data>
Achiral

>  <Geometric.isomer>
None

>  <Chemical name>
4-(1H-imidazol-2-yl)pyridine

>  <ClogP>
0,73

>  <logS>
-0,98

>  <HBD>
1

>  <HBA>
2

>  <TPSA>
41,57

>  <RotBonds>
1

$$$$

  Mrv1925 04172511382D          

 16 17  0  0  0  0            999 V2000
   -2.1434   -0.4125    0.0000 O   0  0  0  0  0  0  0  0  0  0  0  0
   -1.4289   -0.0000    0.0000 C   0  0  0  0  0  0  0  0  0  0  0  0
   -1.4289    0.8250    0.0000 O   0  0  0  0  0  0  0  0  0  0  0  0
   -0.7145   -0.4125    0.0000 C   0  0  0  0  0  0  0  0  0  0  0  0
    0.0000   -0.0000    0.0000 C   0  0  0  0  0  0  0  0  0  0  0  0
    0.7145   -0.4125    0.0000 C   0  0  0  0  0  0  0  0  0  0  0  0
    1.4289    0.0000    0.0000 N   0  0  0  0  0  0  0  0  0  0  0  0
    2.1434   -0.4125    0.0000 C   0  0  0  0  0  0  0  0  0  0  0  0
    2.8579    0.0000    0.0000 C   0  0  0  0  0  0  0  0  0  0  0  0
    3.5724   -0.4125    0.0000 C   0  0  0  0  0  0  0  0  0  0  0  0
    3.5724   -1.2375    0.0000 C   0  0  0  0  0  0  0  0  0  0  0  0
    2.8579   -1.6500    0.0000 C   0  0  0  0  0  0  0  0  0  0  0  0
    2.1434   -1.2375    0.0000 C   0  0  0  0  0  0  0  0  0  0  0  0
    1.4289   -1.6500    0.0000 N   0  0  0  0  0  0  0  0  0  0  0  0
    0.7145   -1.2375    0.0000 C   0  0  0  0  0  0  0  0  0  0  0  0
    0.0000   -1.6500    0.0000 O   0  0  0  0  0  0  0  0  0  0  0  0
  1  2  2  0  0  0  0
  2  3  1  0  0  0  0
  2  4  1  0  0  0  0
  4  5  1  0  0  0  0
  5  6  1  0  0  0  0
  6  7  2  0  0  0  0
  7  8  1  0  0  0  0
  8  9  1  0  0  0  0
  9 10  2  0  0  0  0
 10 11  1  0  0  0  0
 11 12  2  0  0  0  0
 12 13  1  0  0  0  0
  8 13  2  0  0  0  0
 13 14  1  0  0  0  0
 14 15  1  0  0  0  0
  6 15  1  0  0  0  0
 15 16  2  0  0  0  0
M  END
>  <Catalog ID>
Z56862720

>  <Plate_ID>
2026997-X50-02

>  <Well>
G05

>  <V, µL>
50

>  <Conc, mM>
10

>  <Formula>
C11H10N2O3

>  <MW>
218.2087

>  <Purity>
100

>  <PO>
5A-64168

>  <MW_salt>
0

>  <Stereochem.data>
Achiral

>  <Geometric.isomer>
None

>  <Chemical name>
3-(3-oxo-3,4-dihydroquinoxalin-2-yl)propanoic acid

>  <ClogP>
0,066

>  <logS>
-1,35

>  <HBD>
2

>  <HBA>
4

>  <TPSA>
78,76

>  <RotBonds>
3

$$$$

  Mrv1925 04172511382D          

 11 11  0  0  0  0            999 V2000
   -0.7145    3.7125    0.0000 O   0  0  0  0  0  0  0  0  0  0  0  0
    0.0000    3.3000    0.0000 C   0  0  0  0  0  0  0  0  0  0  0  0
    0.7145    3.7125    0.0000 O   0  0  0  0  0  0  0  0  0  0  0  0
    0.0000    2.4750    0.0000 C   0  0  0  0  0  0  0  0  0  0  0  0
    0.7145    2.0625    0.0000 C   0  0  0  0  0  0  0  0  0  0  0  0
    0.7145    1.2375    0.0000 C   0  0  0  0  0  0  0  0  0  0  0  0
    1.4289    0.8250    0.0000 C   0  0  0  0  0  0  0  0  0  0  0  0
    1.4289   -0.0000    0.0000 C   0  0  0  0  0  0  0  0  0  0  0  0
    0.7145   -0.4125    0.0000 C   0  0  0  0  0  0  0  0  0  0  0  0
    0.0000    0.0000    0.0000 C   0  0  0  0  0  0  0  0  0  0  0  0
    0.0000    0.8250    0.0000 C   0  0  0  0  0  0  0  0  0  0  0  0
  1  2  2  0  0  0  0
  2  3  1  0  0  0  0
  2  4  1  0  0  0  0
  4  5  1  0  0  0  0
  5  6  1  0  0  0  0
  6  7  1  0  0  0  0
  7  8  2  0  0  0  0
  8  9  1  0  0  0  0
  9 10  2  0  0  0  0
 10 11  1  0  0  0  0
  6 11  2  0  0  0  0
M  END
>  <Catalog ID>
Z57127332

>  <Plate_ID>
2026997-X50-02

>  <Well>
H05

>  <V, µL>
50

>  <Conc, mM>
10

>  <Formula>
C9H10O2

>  <MW>
150.1745

>  <Purity>
95

>  <PO>
5A-64168

>  <MW_salt>
0

>  <Stereochem.data>
Achiral

>  <Geometric.isomer>
None

>  <Chemical name>
3-phenylpropanoic acid

>  <ClogP>
1,903

>  <logS>
-1,34

>  <HBD>
1

>  <HBA>
2

>  <TPSA>
37,3

>  <RotBonds>
3

$$$$

  Mrv1925 04172511382D          

  9  9  0  0  0  0            999 V2000
    0.0000    2.4750    0.0000 O   0  0  0  0  0  0  0  0  0  0  0  0
    0.7145    2.0625    0.0000 C   0  0  0  0  0  0  0  0  0  0  0  0
    1.4289    2.4750    0.0000 O   0  0  0  0  0  0  0  0  0  0  0  0
    0.7145    1.2375    0.0000 C   0  0  0  0  0  0  0  0  0  0  0  0
    1.4289    0.8250    0.0000 C   0  0  0  0  0  0  0  0  0  0  0  0
    1.4289   -0.0000    0.0000 N   0  0  0  0  0  0  0  0  0  0  0  0
    0.7145   -0.4125    0.0000 C   0  0  0  0  0  0  0  0  0  0  0  0
    0.0000    0.0000    0.0000 C   0  0  0  0  0  0  0  0  0  0  0  0
    0.0000    0.8250    0.0000 N   0  0  0  0  0  0  0  0  0  0  0  0
  1  2  2  0  0  0  0
  2  3  1  0  0  0  0
  2  4  1  0  0  0  0
  4  5  1  0  0  0  0
  5  6  2  0  0  0  0
  6  7  1  0  0  0  0
  7  8  2  0  0  0  0
  8  9  1  0  0  0  0
  4  9  2  0  0  0  0
M  END
>  <Catalog ID>
Z104476002

>  <Plate_ID>
2026997-X50-02

>  <Well>
A06

>  <V, µL>
50

>  <Conc, mM>
10

>  <Formula>
C5H4N2O2

>  <MW>
124.0975

>  <Purity>
95

>  <PO>
5A-64168

>  <MW_salt>
0

>  <Stereochem.data>
Achiral

>  <Geometric.isomer>
None

>  <Chemical name>
pyrazine-2-carboxylic acid

>  <ClogP>
0,1

>  <logS>
0,52

>  <HBD>
1

>  <HBA>
4

>  <TPSA>
63,08

>  <RotBonds>
1

$$$$

  Mrv1925 04172511382D          

 11 11  0  0  0  0            999 V2000
    0.7145    2.0625    0.0000 N   0  0  0  0  0  0  0  0  0  0  0  0
    0.7145    1.2375    0.0000 C   0  0  0  0  0  0  0  0  0  0  0  0
    1.4289    0.8250    0.0000 C   0  0  0  0  0  0  0  0  0  0  0  0
    1.4289   -0.0000    0.0000 C   0  0  0  0  0  0  0  0  0  0  0  0
    0.7145   -0.4125    0.0000 C   0  0  0  0  0  0  0  0  0  0  0  0
    0.0000    0.0000    0.0000 C   0  0  0  0  0  0  0  0  0  0  0  0
    0.0000    0.8250    0.0000 C   0  0  0  0  0  0  0  0  0  0  0  0
    0.7145   -1.2375    0.0000 S   0  0  0  0  0  0  0  0  0  0  0  0
    0.7145   -2.0625    0.0000 N   0  0  0  0  0  0  0  0  0  0  0  0
   -0.1105   -1.2375    0.0000 O   0  0  0  0  0  0  0  0  0  0  0  0
    1.5395   -1.2375    0.0000 O   0  0  0  0  0  0  0  0  0  0  0  0
  1  2  1  0  0  0  0
  2  3  1  0  0  0  0
  3  4  2  0  0  0  0
  4  5  1  0  0  0  0
  5  6  2  0  0  0  0
  6  7  1  0  0  0  0
  2  7  2  0  0  0  0
  5  8  1  0  0  0  0
  8  9  1  0  0  0  0
  8 10  2  0  0  0  0
  8 11  2  0  0  0  0
M  END
>  <Catalog ID>
Z56851240

>  <Plate_ID>
2026997-X50-02

>  <Well>
B06

>  <V, µL>
50

>  <Conc, mM>
10

>  <Formula>
C6H8N2O2S

>  <MW>
172.2049

>  <Purity>
98

>  <PO>
5A-64168

>  <MW_salt>
0

>  <Stereochem.data>
Achiral

>  <Geometric.isomer>
None

>  <Chemical name>
4-aminobenzene-1-sulfonamide

>  <ClogP>
-0,572

>  <logS>
-1,16

>  <HBD>
2

>  <HBA>
3

>  <TPSA>
86,18

>  <RotBonds>
1

$$$$

  Mrv1925 04172511382D          

 11 11  0  0  0  0            999 V2000
    0.7145    2.0625    0.0000 C   0  0  0  0  0  0  0  0  0  0  0  0
    0.7145    1.2375    0.0000 C   0  0  0  0  0  0  0  0  0  0  0  0
    1.4289    0.8250    0.0000 C   0  0  0  0  0  0  0  0  0  0  0  0
    1.4289   -0.0000    0.0000 C   0  0  0  0  0  0  0  0  0  0  0  0
    0.7145   -0.4125    0.0000 C   0  0  0  0  0  0  0  0  0  0  0  0
    0.7145   -1.2375    0.0000 N   0  0  0  0  0  0  0  0  0  0  0  0
    0.0000    0.0000    0.0000 C   0  0  0  0  0  0  0  0  0  0  0  0
    0.0000    0.8250    0.0000 C   0  0  0  0  0  0  0  0  0  0  0  0
   -0.7145   -0.4125    0.0000 C   0  0  0  0  0  0  0  0  0  0  0  0
   -1.4289    0.0000    0.0000 O   0  0  0  0  0  0  0  0  0  0  0  0
   -0.7145   -1.2375    0.0000 O   0  0  0  0  0  0  0  0  0  0  0  0
  1  2  1  0  0  0  0
  2  3  1  0  0  0  0
  3  4  2  0  0  0  0
  4  5  1  0  0  0  0
  5  6  1  0  0  0  0
  5  7  2  0  0  0  0
  7  8  1  0  0  0  0
  2  8  2  0  0  0  0
  7  9  1  0  0  0  0
  9 10  2  0  0  0  0
  9 11  1  0  0  0  0
M  END
>  <Catalog ID>
Z111833788

>  <Plate_ID>
2026997-X50-02

>  <Well>
C06

>  <V, µL>
50

>  <Conc, mM>
10

>  <Formula>
C8H9NO2

>  <MW>
151.1626

>  <Purity>
95

>  <PO>
5A-64168

>  <MW_salt>
0

>  <Stereochem.data>
Achiral

>  <Geometric.isomer>
None

>  <Chemical name>
2-amino-5-methylbenzoic acid

>  <ClogP>
1,707

>  <logS>
-1,86

>  <HBD>
2

>  <HBA>
3

>  <TPSA>
63,32

>  <RotBonds>
1

$$$$

  Mrv1925 04172511382D          

 14 15  0  0  0  0            999 V2000
   -0.7145   -3.7125    0.0000 N   0  0  0  0  0  0  0  0  0  0  0  0
   -0.7145   -2.8875    0.0000 C   0  0  0  0  0  0  0  0  0  0  0  0
    0.0000   -2.4750    0.0000 C   0  0  0  0  0  0  0  0  0  0  0  0
    0.0000   -1.6500    0.0000 C   0  0  0  0  0  0  0  0  0  0  0  0
    0.7145   -1.2375    0.0000 N   0  0  0  0  0  0  0  0  0  0  0  0
    0.7145   -0.4125    0.0000 C   0  0  0  0  0  0  0  0  0  0  0  0
    1.4289    0.0000    0.0000 C   0  0  0  0  0  0  0  0  0  0  0  0
    2.1434   -0.4125    0.0000 C   0  0  0  0  0  0  0  0  0  0  0  0
    2.8579    0.0000    0.0000 C   0  0  0  0  0  0  0  0  0  0  0  0
    3.5724   -0.4125    0.0000 C   0  0  0  0  0  0  0  0  0  0  0  0
    3.5724   -1.2375    0.0000 C   0  0  0  0  0  0  0  0  0  0  0  0
    2.8579   -1.6500    0.0000 C   0  0  0  0  0  0  0  0  0  0  0  0
    2.1434   -1.2375    0.0000 C   0  0  0  0  0  0  0  0  0  0  0  0
    1.4289   -1.6500    0.0000 C   0  0  0  0  0  0  0  0  0  0  0  0
  1  2  1  0  0  0  0
  2  3  1  0  0  0  0
  3  4  1  0  0  0  0
  4  5  1  0  0  0  0
  5  6  1  0  0  0  0
  6  7  1  0  0  0  0
  7  8  1  0  0  0  0
  8  9  1  0  0  0  0
  9 10  2  0  0  0  0
 10 11  1  0  0  0  0
 11 12  2  0  0  0  0
 12 13  1  0  0  0  0
  8 13  2  0  0  0  0
 13 14  1  0  0  0  0
  5 14  1  0  0  0  0
M  END
>  <Catalog ID>
Z271005928

>  <Plate_ID>
2026997-X50-02

>  <Well>
D06

>  <V, µL>
50

>  <Conc, mM>
10

>  <Formula>
C12H18N2

>  <MW>
190.2847

>  <Purity>
93.6

>  <PO>
5A-64168

>  <MW_salt>
0

>  <Stereochem.data>
Achiral

>  <Geometric.isomer>
None

>  <Chemical name>
3-(1,2,3,4-tetrahydroisoquinolin-2-yl)propan-1-amine

>  <ClogP>
1,773

>  <logS>
-0,96

>  <HBD>
1

>  <HBA>
2

>  <TPSA>
29,26

>  <RotBonds>
3

$$$$

  Mrv1925 04172511382D          

 13 14  0  0  0  0            999 V2000
   -0.5837    0.0165    0.0000 O   0  0  0  0  0  0  0  0  0  0  0  0
   -0.1712   -0.6979    0.0000 C   0  0  0  0  0  0  0  0  0  0  0  0
   -0.5837   -1.4124    0.0000 O   0  0  0  0  0  0  0  0  0  0  0  0
    0.6538   -0.6979    0.0000 C   0  0  0  0  0  0  0  0  0  0  0  0
    1.1387   -0.0305    0.0000 C   0  0  0  0  0  0  0  0  0  0  0  0
    1.9233   -0.2854    0.0000 C   0  0  0  0  0  0  0  0  0  0  0  0
    2.6378    0.1271    0.0000 C   0  0  0  0  0  0  0  0  0  0  0  0
    3.3523   -0.2854    0.0000 C   0  0  0  0  0  0  0  0  0  0  0  0
    3.3523   -1.1104    0.0000 C   0  0  0  0  0  0  0  0  0  0  0  0
    4.0668   -1.5229    0.0000 Cl  0  0  0  0  0  0  0  0  0  0  0  0
    2.6378   -1.5229    0.0000 C   0  0  0  0  0  0  0  0  0  0  0  0
    1.9233   -1.1104    0.0000 C   0  0  0  0  0  0  0  0  0  0  0  0
    1.1387   -1.3654    0.0000 N   0  0  0  0  0  0  0  0  0  0  0  0
  1  2  2  0  0  0  0
  2  3  1  0  0  0  0
  2  4  1  0  0  0  0
  4  5  2  0  0  0  0
  5  6  1  0  0  0  0
  6  7  2  0  0  0  0
  7  8  1  0  0  0  0
  8  9  2  0  0  0  0
  9 10  1  0  0  0  0
  9 11  1  0  0  0  0
 11 12  2  0  0  0  0
  6 12  1  0  0  0  0
 12 13  1  0  0  0  0
  4 13  1  0  0  0  0
M  END
>  <Catalog ID>
Z119990438

>  <Plate_ID>
2026997-X50-02

>  <Well>
E06

>  <V, µL>
50

>  <Conc, mM>
10

>  <Formula>
C9H6ClNO2

>  <MW>
195.6024

>  <Purity>
98.87

>  <PO>
5A-64168

>  <MW_salt>
0

>  <Stereochem.data>
Achiral

>  <Geometric.isomer>
None

>  <Chemical name>
6-chloro-1H-indole-2-carboxylic acid

>  <ClogP>
2,925

>  <logS>
-3,42

>  <HBD>
2

>  <HBA>
2

>  <TPSA>
53,09

>  <RotBonds>
1

$$$$

  Mrv1925 04172511382D          

 11 12  0  0  0  0            999 V2000
   -0.4529   -0.9694    0.0000 O   0  0  0  0  0  0  0  0  0  0  0  0
   -0.0404   -0.2549    0.0000 C   0  0  0  0  0  0  0  0  0  0  0  0
   -0.4529    0.4595    0.0000 O   0  0  0  0  0  0  0  0  0  0  0  0
    0.7846   -0.2549    0.0000 C   0  0  0  0  0  0  0  0  0  0  0  0
    1.2695    0.4125    0.0000 C   0  0  0  0  0  0  0  0  0  0  0  0
    2.0542    0.1576    0.0000 C   0  0  0  0  0  0  0  0  0  0  0  0
    2.8388    0.4125    0.0000 O   0  0  0  0  0  0  0  0  0  0  0  0
    3.3237   -0.2549    0.0000 C   0  0  0  0  0  0  0  0  0  0  0  0
    2.8388   -0.9224    0.0000 C   0  0  0  0  0  0  0  0  0  0  0  0
    2.0542   -0.6674    0.0000 C   0  0  0  0  0  0  0  0  0  0  0  0
    1.2695   -0.9224    0.0000 N   0  0  0  0  0  0  0  0  0  0  0  0
  1  2  2  0  0  0  0
  2  3  1  0  0  0  0
  2  4  1  0  0  0  0
  4  5  2  0  0  0  0
  5  6  1  0  0  0  0
  6  7  1  0  0  0  0
  7  8  1  0  0  0  0
  8  9  2  0  0  0  0
  9 10  1  0  0  0  0
  6 10  2  0  0  0  0
 10 11  1  0  0  0  0
  4 11  1  0  0  0  0
M  END
>  <Catalog ID>
Z1198172211

>  <Plate_ID>
2026997-X50-02

>  <Well>
F06

>  <V, µL>
50

>  <Conc, mM>
10

>  <Formula>
C7H5NO3

>  <MW>
151.1195

>  <Purity>
100

>  <PO>
5A-64168

>  <MW_salt>
0

>  <Stereochem.data>
Achiral

>  <Geometric.isomer>
None

>  <Chemical name>
4H-furo[3,2-b]pyrrole-5-carboxylic acid

>  <ClogP>
1,517

>  <logS>
-1,59

>  <HBD>
2

>  <HBA>
2

>  <TPSA>
66,23

>  <RotBonds>
1

$$$$

  Mrv1925 04172511382D          

 15 16  0  0  0  0            999 V2000
    4.7812    1.9354    0.0000 C   0  0  0  0  0  0  0  0  0  0  0  0
    4.0668    2.3479    0.0000 O   0  0  0  0  0  0  0  0  0  0  0  0
    3.3523    1.9354    0.0000 C   0  0  0  0  0  0  0  0  0  0  0  0
    3.3523    1.1104    0.0000 C   0  0  0  0  0  0  0  0  0  0  0  0
    2.6378    0.6979    0.0000 C   0  0  0  0  0  0  0  0  0  0  0  0
    1.9233    1.1104    0.0000 C   0  0  0  0  0  0  0  0  0  0  0  0
    1.1387    0.8555    0.0000 N   0  0  0  0  0  0  0  0  0  0  0  0
    0.6538    1.5229    0.0000 C   0  0  0  0  0  0  0  0  0  0  0  0
    1.1387    2.1904    0.0000 C   0  0  0  0  0  0  0  0  0  0  0  0
    0.8838    2.9750    0.0000 C   0  0  0  0  0  0  0  0  0  0  0  0
    1.4358    3.5881    0.0000 N   0  0  0  0  0  0  0  0  0  0  0  0
    1.1809    4.3727    0.0000 C   0  0  0  0  0  0  0  0  0  0  0  0
    2.2428    3.4166    0.0000 C   0  0  0  0  0  0  0  0  0  0  0  0
    1.9233    1.9354    0.0000 C   0  0  0  0  0  0  0  0  0  0  0  0
    2.6378    2.3479    0.0000 C   0  0  0  0  0  0  0  0  0  0  0  0
  1  2  1  0  0  0  0
  2  3  1  0  0  0  0
  3  4  1  0  0  0  0
  4  5  2  0  0  0  0
  5  6  1  0  0  0  0
  6  7  1  0  0  0  0
  7  8  1  0  0  0  0
  8  9  2  0  0  0  0
  9 10  1  0  0  0  0
 10 11  1  0  0  0  0
 11 12  1  0  0  0  0
 11 13  1  0  0  0  0
  9 14  1  0  0  0  0
  6 14  2  0  0  0  0
 14 15  1  0  0  0  0
  3 15  2  0  0  0  0
M  END
>  <Catalog ID>
Z1509140850

>  <Plate_ID>
2026997-X50-02

>  <Well>
G06

>  <V, µL>
50

>  <Conc, mM>
10

>  <Formula>
C12H16N2O

>  <MW>
204.2682

>  <Purity>
95

>  <PO>
5A-64168

>  <MW_salt>
0

>  <Stereochem.data>
Achiral

>  <Geometric.isomer>
None

>  <Chemical name>
[(5-methoxy-1H-indol-3-yl)methyl]dimethylamine

>  <ClogP>
1,987

>  <logS>
-2,02

>  <HBD>
1

>  <HBA>
2

>  <TPSA>
28,26

>  <RotBonds>
3

$$$$

  Mrv1925 04172511382D          

 12 12  0  0  0  0            999 V2000
    0.0000    3.3000    0.0000 O   0  0  0  0  0  0  0  0  0  0  0  0
    0.0000    2.4750    0.0000 C   0  0  0  0  0  0  0  0  0  0  0  0
   -0.7145    2.0625    0.0000 O   0  0  0  0  0  0  0  0  0  0  0  0
    0.7145    2.0625    0.0000 C   0  0  0  0  0  0  0  0  0  0  0  0
    0.7145    1.2375    0.0000 C   0  0  0  0  0  0  0  0  0  0  0  0
    1.4289    0.8250    0.0000 C   0  0  0  0  0  0  0  0  0  0  0  0
    2.1434    1.2375    0.0000 Cl  0  0  0  0  0  0  0  0  0  0  0  0
    1.4289   -0.0000    0.0000 C   0  0  0  0  0  0  0  0  0  0  0  0
    0.7145   -0.4125    0.0000 C   0  0  0  0  0  0  0  0  0  0  0  0
    0.0000    0.0000    0.0000 C   0  0  0  0  0  0  0  0  0  0  0  0
    0.0000    0.8250    0.0000 C   0  0  0  0  0  0  0  0  0  0  0  0
   -0.7145    1.2375    0.0000 Cl  0  0  0  0  0  0  0  0  0  0  0  0
  1  2  2  0  0  0  0
  2  3  1  0  0  0  0
  2  4  1  0  0  0  0
  4  5  1  0  0  0  0
  5  6  1  0  0  0  0
  6  7  1  0  0  0  0
  6  8  2  0  0  0  0
  8  9  1  0  0  0  0
  9 10  2  0  0  0  0
 10 11  1  0  0  0  0
  5 11  2  0  0  0  0
 11 12  1  0  0  0  0
M  END
>  <Catalog ID>
Z104478552

>  <Plate_ID>
2026997-X50-02

>  <Well>
H06

>  <V, µL>
50

>  <Conc, mM>
10

>  <Formula>
C8H6Cl2O2

>  <MW>
205.038

>  <Purity>
95

>  <PO>
5A-64168

>  <MW_salt>
0

>  <Stereochem.data>
Achiral

>  <Geometric.isomer>
None

>  <Chemical name>
2-(2,6-dichlorophenyl)acetic acid

>  <ClogP>
2,84

>  <logS>
-2,58

>  <HBD>
1

>  <HBA>
2

>  <TPSA>
37,3

>  <RotBonds>
2

$$$$

  Mrv1925 04172511382D          

 11 12  0  0  0  0            999 V2000
    4.0668    3.1729    0.0000 C   0  0  0  0  0  0  0  0  0  0  0  0
    4.0668    2.3479    0.0000 O   0  0  0  0  0  0  0  0  0  0  0  0
    3.3523    1.9354    0.0000 C   0  0  0  0  0  0  0  0  0  0  0  0
    3.3523    1.1104    0.0000 C   0  0  0  0  0  0  0  0  0  0  0  0
    2.6378    0.6979    0.0000 C   0  0  0  0  0  0  0  0  0  0  0  0
    1.9233    1.1104    0.0000 C   0  0  0  0  0  0  0  0  0  0  0  0
    1.1387    0.8555    0.0000 N   0  0  0  0  0  0  0  0  0  0  0  0
    0.6538    1.5229    0.0000 C   0  0  0  0  0  0  0  0  0  0  0  0
    1.1387    2.1904    0.0000 C   0  0  0  0  0  0  0  0  0  0  0  0
    1.9233    1.9354    0.0000 C   0  0  0  0  0  0  0  0  0  0  0  0
    2.6378    2.3479    0.0000 C   0  0  0  0  0  0  0  0  0  0  0  0
  1  2  1  0  0  0  0
  2  3  1  0  0  0  0
  3  4  1  0  0  0  0
  4  5  2  0  0  0  0
  5  6  1  0  0  0  0
  6  7  1  0  0  0  0
  7  8  1  0  0  0  0
  8  9  2  0  0  0  0
  9 10  1  0  0  0  0
  6 10  2  0  0  0  0
 10 11  1  0  0  0  0
  3 11  2  0  0  0  0
M  END
>  <Catalog ID>
Z104507276

>  <Plate_ID>
2026997-X50-02

>  <Well>
A07

>  <V, µL>
50

>  <Conc, mM>
10

>  <Formula>
C9H9NO

>  <MW>
147.1739

>  <Purity>
100

>  <PO>
5A-64168

>  <MW_salt>
0

>  <Stereochem.data>
Achiral

>  <Geometric.isomer>
None

>  <Chemical name>
5-methoxy-1H-indole

>  <ClogP>
2,153

>  <logS>
-2,29

>  <HBD>
1

>  <HBA>
1

>  <TPSA>
25,02

>  <RotBonds>
1

$$$$

  Mrv1925 04172511382D          

 13 13  0  0  0  0            999 V2000
    0.0000    3.3000    0.0000 C   0  0  0  0  0  0  0  0  0  0  0  0
    0.0000    2.4750    0.0000 C   0  0  0  0  0  0  0  0  0  0  0  0
    0.7145    2.0625    0.0000 C   0  0  0  0  0  0  0  0  0  0  0  0
    0.7145    1.2375    0.0000 C   0  0  0  0  0  0  0  0  0  0  0  0
    1.4289    0.8250    0.0000 C   0  0  0  0  0  0  0  0  0  0  0  0
    1.4289   -0.0000    0.0000 C   0  0  0  0  0  0  0  0  0  0  0  0
    0.7145   -0.4125    0.0000 C   0  0  0  0  0  0  0  0  0  0  0  0
    0.0000    0.0000    0.0000 C   0  0  0  0  0  0  0  0  0  0  0  0
    0.0000    0.8250    0.0000 C   0  0  0  0  0  0  0  0  0  0  0  0
    0.7145   -1.2375    0.0000 S   0  0  0  0  0  0  0  0  0  0  0  0
    0.7145   -2.0625    0.0000 N   0  0  0  0  0  0  0  0  0  0  0  0
   -0.1105   -1.2375    0.0000 O   0  0  0  0  0  0  0  0  0  0  0  0
    1.5395   -1.2375    0.0000 O   0  0  0  0  0  0  0  0  0  0  0  0
  1  2  1  0  0  0  0
  2  3  1  0  0  0  0
  3  4  1  0  0  0  0
  4  5  1  0  0  0  0
  5  6  2  0  0  0  0
  6  7  1  0  0  0  0
  7  8  2  0  0  0  0
  8  9  1  0  0  0  0
  4  9  2  0  0  0  0
  7 10  1  0  0  0  0
 10 11  1  0  0  0  0
 10 12  2  0  0  0  0
 10 13  2  0  0  0  0
M  END
>  <Catalog ID>
Z45415607

>  <Plate_ID>
2026997-X50-02

>  <Well>
B07

>  <V, µL>
50

>  <Conc, mM>
10

>  <Formula>
C9H13NO2S

>  <MW>
199.27

>  <Purity>
98.93

>  <PO>
5A-64168

>  <MW_salt>
0

>  <Stereochem.data>
Achiral

>  <Geometric.isomer>
None

>  <Chemical name>
4-propylbenzene-1-sulfonamide

>  <ClogP>
1,862

>  <logS>
-2,89

>  <HBD>
1

>  <HBA>
2

>  <TPSA>
60,16

>  <RotBonds>
3

$$$$

  Mrv1925 04172511382D          

 12 13  0  0  0  0            999 V2000
    0.0000   -1.6500    0.0000 O   0  0  0  0  0  0  0  0  0  0  0  0
    0.7145   -1.2375    0.0000 C   0  0  0  0  0  0  0  0  0  0  0  0
    0.7145   -0.4125    0.0000 C   0  0  0  0  0  0  0  0  0  0  0  0
    1.4289    0.0000    0.0000 C   0  0  0  0  0  0  0  0  0  0  0  0
    1.4289    0.8250    0.0000 O   0  0  0  0  0  0  0  0  0  0  0  0
    2.1434   -0.4125    0.0000 C   0  0  0  0  0  0  0  0  0  0  0  0
    2.8579    0.0000    0.0000 C   0  0  0  0  0  0  0  0  0  0  0  0
    3.5724   -0.4125    0.0000 C   0  0  0  0  0  0  0  0  0  0  0  0
    3.5724   -1.2375    0.0000 C   0  0  0  0  0  0  0  0  0  0  0  0
    2.8579   -1.6500    0.0000 C   0  0  0  0  0  0  0  0  0  0  0  0
    2.1434   -1.2375    0.0000 C   0  0  0  0  0  0  0  0  0  0  0  0
    1.4289   -1.6500    0.0000 O   0  0  0  0  0  0  0  0  0  0  0  0
  1  2  2  0  0  0  0
  2  3  1  0  0  0  0
  3  4  2  0  0  0  0
  4  5  1  0  0  0  0
  4  6  1  0  0  0  0
  6  7  1  0  0  0  0
  7  8  2  0  0  0  0
  8  9  1  0  0  0  0
  9 10  2  0  0  0  0
 10 11  1  0  0  0  0
  6 11  2  0  0  0  0
 11 12  1  0  0  0  0
  2 12  1  0  0  0  0
M  END
>  <Catalog ID>
Z56922074

>  <Plate_ID>
2026997-X50-02

>  <Well>
C07

>  <V, µL>
50

>  <Conc, mM>
10

>  <Formula>
C9H6O3

>  <MW>
162.1421

>  <Purity>
100

>  <PO>
5A-64168

>  <MW_salt>
0

>  <Stereochem.data>
Achiral

>  <Geometric.isomer>
None

>  <Chemical name>
4-hydroxy-2H-chromen-2-one

>  <ClogP>
1,916

>  <logS>
-2,16

>  <HBD>
1

>  <HBA>
2

>  <TPSA>
46,53

>  <RotBonds>
0

$$$$

  Mrv1925 04172511382D          

 15 16  0  0  0  0            999 V2000
    0.0000   -4.1250    0.0000 O   0  0  0  0  0  0  0  0  0  0  0  0
    0.7145   -3.7125    0.0000 C   0  0  0  0  0  0  0  0  0  0  0  0
    1.4289   -4.1250    0.0000 O   0  0  0  0  0  0  0  0  0  0  0  0
    0.7145   -2.8875    0.0000 C   0  0  0  0  0  0  0  0  0  0  0  0
    1.4289   -2.4750    0.0000 O   0  0  0  0  0  0  0  0  0  0  0  0
    1.4289   -1.6500    0.0000 C   0  0  0  0  0  0  0  0  0  0  0  0
    0.7145   -1.2375    0.0000 C   0  0  0  0  0  0  0  0  0  0  0  0
    0.7145   -0.4125    0.0000 C   0  0  0  0  0  0  0  0  0  0  0  0
    1.4289    0.0000    0.0000 C   0  0  0  0  0  0  0  0  0  0  0  0
    2.1434   -0.4125    0.0000 C   0  0  0  0  0  0  0  0  0  0  0  0
    2.8579    0.0000    0.0000 C   0  0  0  0  0  0  0  0  0  0  0  0
    3.5724   -0.4125    0.0000 C   0  0  0  0  0  0  0  0  0  0  0  0
    3.5724   -1.2375    0.0000 C   0  0  0  0  0  0  0  0  0  0  0  0
    2.8579   -1.6500    0.0000 C   0  0  0  0  0  0  0  0  0  0  0  0
    2.1434   -1.2375    0.0000 C   0  0  0  0  0  0  0  0  0  0  0  0
  1  2  2  0  0  0  0
  2  3  1  0  0  0  0
  2  4  1  0  0  0  0
  4  5  1  0  0  0  0
  5  6  1  0  0  0  0
  6  7  1  0  0  0  0
  7  8  2  0  0  0  0
  8  9  1  0  0  0  0
  9 10  2  0  0  0  0
 10 11  1  0  0  0  0
 11 12  2  0  0  0  0
 12 13  1  0  0  0  0
 13 14  2  0  0  0  0
 14 15  1  0  0  0  0
  6 15  2  0  0  0  0
 10 15  1  0  0  0  0
M  END
>  <Catalog ID>
Z56900768

>  <Plate_ID>
2026997-X50-02

>  <Well>
D07

>  <V, µL>
50

>  <Conc, mM>
10

>  <Formula>
C12H10O3

>  <MW>
202.206

>  <Purity>
100

>  <PO>
5A-64168

>  <MW_salt>
0

>  <Stereochem.data>
Achiral

>  <Geometric.isomer>
None

>  <Chemical name>
2-(naphthalen-1-yloxy)acetic acid

>  <ClogP>
2,524

>  <logS>
-3,38

>  <HBD>
1

>  <HBA>
3

>  <TPSA>
46,53

>  <RotBonds>
3

$$$$

  Mrv1925 04172511382D          

 11 11  0  0  0  0            999 V2000
    0.7145    2.0625    0.0000 C   0  0  0  0  0  0  0  0  0  0  0  0
    0.7145    1.2375    0.0000 C   0  0  0  0  0  0  0  0  0  0  0  0
    1.4289    0.8250    0.0000 C   0  0  0  0  0  0  0  0  0  0  0  0
    1.4289   -0.0000    0.0000 C   0  0  0  0  0  0  0  0  0  0  0  0
    0.7145   -0.4125    0.0000 C   0  0  0  0  0  0  0  0  0  0  0  0
    0.7145   -1.2375    0.0000 F   0  0  0  0  0  0  0  0  0  0  0  0
    0.0000    0.0000    0.0000 C   0  0  0  0  0  0  0  0  0  0  0  0
    0.0000    0.8250    0.0000 C   0  0  0  0  0  0  0  0  0  0  0  0
   -0.7145    1.2375    0.0000 C   0  0  0  0  0  0  0  0  0  0  0  0
   -0.7145    2.0625    0.0000 O   0  0  0  0  0  0  0  0  0  0  0  0
   -1.4289    0.8250    0.0000 O   0  0  0  0  0  0  0  0  0  0  0  0
  1  2  1  0  0  0  0
  2  3  1  0  0  0  0
  3  4  2  0  0  0  0
  4  5  1  0  0  0  0
  5  6  1  0  0  0  0
  5  7  2  0  0  0  0
  7  8  1  0  0  0  0
  2  8  2  0  0  0  0
  8  9  1  0  0  0  0
  9 10  2  0  0  0  0
  9 11  1  0  0  0  0
M  END
>  <Catalog ID>
Z203881854

>  <Plate_ID>
2026997-X50-02

>  <Well>
E07

>  <V, µL>
50

>  <Conc, mM>
10

>  <Formula>
C8H7FO2

>  <MW>
154.1384

>  <Purity>
100

>  <PO>
5A-64168

>  <MW_salt>
0

>  <Stereochem.data>
Achiral

>  <Geometric.isomer>
None

>  <Chemical name>
5-fluoro-2-methylbenzoic acid

>  <ClogP>
2,325

>  <logS>
-2,32

>  <HBD>
1

>  <HBA>
2

>  <TPSA>
37,3

>  <RotBonds>
1

$$$$

  Mrv1925 04172511382D          

 12 12  0  0  0  0            999 V2000
   -0.7145    3.7125    0.0000 O   0  0  0  0  0  0  0  0  0  0  0  0
    0.0000    3.3000    0.0000 C   0  0  0  0  0  0  0  0  0  0  0  0
    0.7145    3.7125    0.0000 O   0  0  0  0  0  0  0  0  0  0  0  0
    0.0000    2.4750    0.0000 C   0  0  0  0  0  0  0  0  0  0  0  0
    0.7145    2.0625    0.0000 C   0  0  0  0  0  0  0  0  0  0  0  0
    0.7145    1.2375    0.0000 C   0  0  0  0  0  0  0  0  0  0  0  0
    1.4289    0.8250    0.0000 C   0  0  0  0  0  0  0  0  0  0  0  0
    1.4289   -0.0000    0.0000 C   0  0  0  0  0  0  0  0  0  0  0  0
    0.7145   -0.4125    0.0000 C   0  0  0  0  0  0  0  0  0  0  0  0
    0.7145   -1.2375    0.0000 Cl  0  0  0  0  0  0  0  0  0  0  0  0
    0.0000    0.0000    0.0000 C   0  0  0  0  0  0  0  0  0  0  0  0
    0.0000    0.8250    0.0000 C   0  0  0  0  0  0  0  0  0  0  0  0
  1  2  2  0  0  0  0
  2  3  1  0  0  0  0
  2  4  1  0  0  0  0
  4  5  1  0  0  0  0
  5  6  1  0  0  0  0
  6  7  1  0  0  0  0
  7  8  2  0  0  0  0
  8  9  1  0  0  0  0
  9 10  1  0  0  0  0
  9 11  2  0  0  0  0
 11 12  1  0  0  0  0
  6 12  2  0  0  0  0
M  END
>  <Catalog ID>
Z178961272

>  <Plate_ID>
2026997-X50-02

>  <Well>
F07

>  <V, µL>
50

>  <Conc, mM>
10

>  <Formula>
C9H9ClO2

>  <MW>
184.6196

>  <Purity>
97.69

>  <PO>
5A-64168

>  <MW_salt>
0

>  <Stereochem.data>
Achiral

>  <Geometric.isomer>
None

>  <Chemical name>
3-(4-chlorophenyl)propanoic acid

>  <ClogP>
2,616

>  <logS>
-2,11

>  <HBD>
1

>  <HBA>
2

>  <TPSA>
37,3

>  <RotBonds>
3

$$$$

  Mrv1925 04172511382D          

 11 11  0  0  0  0            999 V2000
    0.7145    2.0625    0.0000 N   0  0  0  0  0  0  0  0  0  0  0  0
    0.7145    1.2375    0.0000 C   0  0  0  0  0  0  0  0  0  0  0  0
    1.4289    0.8250    0.0000 C   0  0  0  0  0  0  0  0  0  0  0  0
    1.4289   -0.0000    0.0000 C   0  0  0  0  0  0  0  0  0  0  0  0
    2.1434   -0.4125    0.0000 F   0  0  0  0  0  0  0  0  0  0  0  0
    0.7145   -0.4125    0.0000 C   0  0  0  0  0  0  0  0  0  0  0  0
    0.0000    0.0000    0.0000 C   0  0  0  0  0  0  0  0  0  0  0  0
    0.0000    0.8250    0.0000 C   0  0  0  0  0  0  0  0  0  0  0  0
   -0.7145    1.2375    0.0000 C   0  0  0  0  0  0  0  0  0  0  0  0
   -1.4289    0.8250    0.0000 O   0  0  0  0  0  0  0  0  0  0  0  0
   -0.7145    2.0625    0.0000 O   0  0  0  0  0  0  0  0  0  0  0  0
  1  2  1  0  0  0  0
  2  3  1  0  0  0  0
  3  4  2  0  0  0  0
  4  5  1  0  0  0  0
  4  6  1  0  0  0  0
  6  7  2  0  0  0  0
  7  8  1  0  0  0  0
  2  8  2  0  0  0  0
  8  9  1  0  0  0  0
  9 10  2  0  0  0  0
  9 11  1  0  0  0  0
M  END
>  <Catalog ID>
Z106939542

>  <Plate_ID>
2026997-X50-02

>  <Well>
G07

>  <V, µL>
50

>  <Conc, mM>
10

>  <Formula>
C7H6FNO2

>  <MW>
155.1264

>  <Purity>
100

>  <PO>
5A-64168

>  <MW_salt>
0

>  <Stereochem.data>
Achiral

>  <Geometric.isomer>
None

>  <Chemical name>
2-amino-4-fluorobenzoic acid

>  <ClogP>
1,478

>  <logS>
-1,63

>  <HBD>
2

>  <HBA>
3

>  <TPSA>
63,32

>  <RotBonds>
1

$$$$

  Mrv1925 04172511382D          

 10 10  0  0  0  0            999 V2000
   -0.7145    2.8875    0.0000 N   0  0  0  0  0  0  0  0  0  0  0  0
    0.0000    2.4750    0.0000 C   0  0  0  0  0  0  0  0  0  0  0  0
    0.7145    2.0625    0.0000 C   0  0  0  0  0  0  0  0  0  0  0  0
    0.7145    1.2375    0.0000 C   0  0  0  0  0  0  0  0  0  0  0  0
    1.4289    0.8250    0.0000 C   0  0  0  0  0  0  0  0  0  0  0  0
    1.4289   -0.0000    0.0000 C   0  0  0  0  0  0  0  0  0  0  0  0
    0.7145   -0.4125    0.0000 C   0  0  0  0  0  0  0  0  0  0  0  0
    0.7145   -1.2375    0.0000 O   0  0  0  0  0  0  0  0  0  0  0  0
    0.0000    0.0000    0.0000 C   0  0  0  0  0  0  0  0  0  0  0  0
    0.0000    0.8250    0.0000 C   0  0  0  0  0  0  0  0  0  0  0  0
  1  2  3  0  0  0  0
  2  3  1  0  0  0  0
  3  4  1  0  0  0  0
  4  5  1  0  0  0  0
  5  6  2  0  0  0  0
  6  7  1  0  0  0  0
  7  8  1  0  0  0  0
  7  9  2  0  0  0  0
  9 10  1  0  0  0  0
  4 10  2  0  0  0  0
M  END
>  <Catalog ID>
Z90120144

>  <Plate_ID>
2026997-X50-02

>  <Well>
H07

>  <V, µL>
50

>  <Conc, mM>
10

>  <Formula>
C8H7NO

>  <MW>
133.1473

>  <Purity>
100

>  <PO>
5A-64168

>  <MW_salt>
0

>  <Stereochem.data>
Achiral

>  <Geometric.isomer>
None

>  <Chemical name>
2-(4-hydroxyphenyl)acetonitrile

>  <ClogP>
0,897

>  <logS>
-1,21

>  <HBD>
1

>  <HBA>
2

>  <TPSA>
44,02

>  <RotBonds>
1

$$$$

  Mrv1925 04172511382D          

 11 12  0  0  0  0            999 V2000
   -0.1712   -0.6979    0.0000 N   0  0  0  0  0  0  0  0  0  0  0  0
    0.6538   -0.6979    0.0000 C   0  0  0  0  0  0  0  0  0  0  0  0
    1.1387   -0.0305    0.0000 N   0  0  0  0  0  0  0  0  0  0  0  0
    1.9233   -0.2854    0.0000 C   0  0  0  0  0  0  0  0  0  0  0  0
    2.6378    0.1271    0.0000 C   0  0  0  0  0  0  0  0  0  0  0  0
    3.3523   -0.2854    0.0000 C   0  0  0  0  0  0  0  0  0  0  0  0
    4.0668    0.1271    0.0000 Cl  0  0  0  0  0  0  0  0  0  0  0  0
    3.3523   -1.1104    0.0000 C   0  0  0  0  0  0  0  0  0  0  0  0
    2.6378   -1.5229    0.0000 C   0  0  0  0  0  0  0  0  0  0  0  0
    1.9233   -1.1104    0.0000 C   0  0  0  0  0  0  0  0  0  0  0  0
    1.1387   -1.3654    0.0000 O   0  0  0  0  0  0  0  0  0  0  0  0
  1  2  1  0  0  0  0
  2  3  2  0  0  0  0
  3  4  1  0  0  0  0
  4  5  1  0  0  0  0
  5  6  2  0  0  0  0
  6  7  1  0  0  0  0
  6  8  1  0  0  0  0
  8  9  2  0  0  0  0
  9 10  1  0  0  0  0
  4 10  2  0  0  0  0
 10 11  1  0  0  0  0
  2 11  1  0  0  0  0
M  END
>  <Catalog ID>
Z89267039

>  <Plate_ID>
2026997-X50-02

>  <Well>
A08

>  <V, µL>
50

>  <Conc, mM>
10

>  <Formula>
C7H5ClN2O

>  <MW>
168.5804

>  <Purity>
100

>  <PO>
5A-64168

>  <MW_salt>
0

>  <Stereochem.data>
Achiral

>  <Geometric.isomer>
None

>  <Chemical name>
5-chloro-1,3-benzoxazol-2-amine

>  <ClogP>
1,893

>  <logS>
-2,67

>  <HBD>
1

>  <HBA>
2

>  <TPSA>
52,05

>  <RotBonds>
0

$$$$

  Mrv1925 04172511382D          

 12 12  0  0  0  0            999 V2000
    0.7145    2.8875    0.0000 N   0  0  0  0  0  0  0  0  0  0  0  0
    0.7145    2.0625    0.0000 S   0  0  0  0  0  0  0  0  0  0  0  0
   -0.1105    2.0625    0.0000 O   0  0  0  0  0  0  0  0  0  0  0  0
    1.5395    2.0625    0.0000 O   0  0  0  0  0  0  0  0  0  0  0  0
    0.7145    1.2375    0.0000 C   0  0  0  0  0  0  0  0  0  0  0  0
    1.4289    0.8250    0.0000 C   0  0  0  0  0  0  0  0  0  0  0  0
    1.4289   -0.0000    0.0000 C   0  0  0  0  0  0  0  0  0  0  0  0
    2.1434   -0.4125    0.0000 Cl  0  0  0  0  0  0  0  0  0  0  0  0
    0.7145   -0.4125    0.0000 C   0  0  0  0  0  0  0  0  0  0  0  0
    0.0000    0.0000    0.0000 C   0  0  0  0  0  0  0  0  0  0  0  0
   -0.7145   -0.4125    0.0000 Cl  0  0  0  0  0  0  0  0  0  0  0  0
    0.0000    0.8250    0.0000 C   0  0  0  0  0  0  0  0  0  0  0  0
  1  2  1  0  0  0  0
  2  3  2  0  0  0  0
  2  4  2  0  0  0  0
  2  5  1  0  0  0  0
  5  6  1  0  0  0  0
  6  7  2  0  0  0  0
  7  8  1  0  0  0  0
  7  9  1  0  0  0  0
  9 10  2  0  0  0  0
 10 11  1  0  0  0  0
 10 12  1  0  0  0  0
  5 12  2  0  0  0  0
M  END
>  <Catalog ID>
Z45415617

>  <Plate_ID>
2026997-X50-02

>  <Well>
B08

>  <V, µL>
50

>  <Conc, mM>
10

>  <Formula>
C6H5Cl2NO2S

>  <MW>
226.0804

>  <Purity>
100

>  <PO>
5A-64168

>  <MW_salt>
0

>  <Stereochem.data>
Achiral

>  <Geometric.isomer>
None

>  <Chemical name>
3,5-dichlorobenzene-1-sulfonamide

>  <ClogP>
2,064

>  <logS>
-2,851

>  <HBD>
1

>  <HBA>
2

>  <TPSA>
60,16

>  <RotBonds>
1

$$$$

  Mrv1925 04172511382D          

  9  9  0  0  0  0            999 V2000
    0.5678    1.9393    0.0000 C   0  0  0  0  0  0  0  0  0  0  0  0
    0.5678    1.1143    0.0000 C   0  0  0  0  0  0  0  0  0  0  0  0
    1.2352    0.6294    0.0000 N   0  0  0  0  0  0  0  0  0  0  0  0
    0.9803   -0.1553    0.0000 C   0  0  0  0  0  0  0  0  0  0  0  0
    0.1553   -0.1553    0.0000 C   0  0  0  0  0  0  0  0  0  0  0  0
   -0.0997    0.6294    0.0000 N   0  0  0  0  0  0  0  0  0  0  0  0
   -0.8843    0.8843    0.0000 C   0  0  0  0  0  0  0  0  0  0  0  0
   -1.0558    1.6913    0.0000 C   0  0  0  0  0  0  0  0  0  0  0  0
   -1.8405    1.9462    0.0000 O   0  0  0  0  0  0  0  0  0  0  0  0
  1  2  1  0  0  0  0
  2  3  2  0  0  0  0
  3  4  1  0  0  0  0
  4  5  2  0  0  0  0
  5  6  1  0  0  0  0
  2  6  1  0  0  0  0
  6  7  1  0  0  0  0
  7  8  1  0  0  0  0
  8  9  1  0  0  0  0
M  END
>  <Catalog ID>
Z425794744

>  <Plate_ID>
2026997-X50-02

>  <Well>
C08

>  <V, µL>
50

>  <Conc, mM>
10

>  <Formula>
C6H10N2O

>  <MW>
126.1564

>  <Purity>
100

>  <PO>
5A-64168

>  <MW_salt>
0

>  <Stereochem.data>
Achiral

>  <Geometric.isomer>
None

>  <Chemical name>
2-(2-methyl-1H-imidazol-1-yl)ethan-1-ol

>  <ClogP>
-0,574

>  <logS>
0,89

>  <HBD>
1

>  <HBA>
2

>  <TPSA>
38,05

>  <RotBonds>
2

$$$$

  Mrv1925 04172511382D          

  9  9  0  0  0  0            999 V2000
    0.7145    2.0625    0.0000 C   0  0  0  0  0  0  0  0  0  0  0  0
    0.7145    1.2375    0.0000 C   0  0  0  0  0  0  0  0  0  0  0  0
    1.4289    0.8250    0.0000 C   0  0  0  0  0  0  0  0  0  0  0  0
    1.4289   -0.0000    0.0000 C   0  0  0  0  0  0  0  0  0  0  0  0
    2.1434   -0.4125    0.0000 C   0  0  0  0  0  0  0  0  0  0  0  0
    0.7145   -0.4125    0.0000 N   0  0  0  0  0  0  0  0  0  0  0  0
    0.0000    0.0000    0.0000 C   0  0  0  0  0  0  0  0  0  0  0  0
   -0.7145   -0.4125    0.0000 N   0  0  0  0  0  0  0  0  0  0  0  0
    0.0000    0.8250    0.0000 C   0  0  0  0  0  0  0  0  0  0  0  0
  1  2  1  0  0  0  0
  2  3  1  0  0  0  0
  3  4  2  0  0  0  0
  4  5  1  0  0  0  0
  4  6  1  0  0  0  0
  6  7  2  0  0  0  0
  7  8  1  0  0  0  0
  7  9  1  0  0  0  0
  2  9  2  0  0  0  0
M  END
>  <Catalog ID>
Z1192367241

>  <Plate_ID>
2026997-X50-02

>  <Well>
D08

>  <V, µL>
50

>  <Conc, mM>
10

>  <Formula>
C7H10N2

>  <MW>
122.1677

>  <Purity>
98.86

>  <PO>
5A-64168

>  <MW_salt>
0

>  <Stereochem.data>
Achiral

>  <Geometric.isomer>
None

>  <Chemical name>
4,6-dimethylpyridin-2-amine

>  <ClogP>
1,316

>  <logS>
-1,28

>  <HBD>
1

>  <HBA>
2

>  <TPSA>
38,91

>  <RotBonds>
0

$$$$

  Mrv1925 04172511382D          

 11 12  0  0  0  0            999 V2000
    0.0000   -1.6500    0.0000 N   0  0  0  0  0  0  0  0  0  0  0  0
    0.7145   -1.2375    0.0000 C   0  0  0  0  0  0  0  0  0  0  0  0
    0.7145   -0.4125    0.0000 C   0  0  0  0  0  0  0  0  0  0  0  0
    1.4289    0.0000    0.0000 N   0  0  0  0  0  0  0  0  0  0  0  0
    2.1434   -0.4125    0.0000 C   0  0  0  0  0  0  0  0  0  0  0  0
    2.8579    0.0000    0.0000 C   0  0  0  0  0  0  0  0  0  0  0  0
    3.5724   -0.4125    0.0000 C   0  0  0  0  0  0  0  0  0  0  0  0
    3.5724   -1.2375    0.0000 C   0  0  0  0  0  0  0  0  0  0  0  0
    2.8579   -1.6500    0.0000 C   0  0  0  0  0  0  0  0  0  0  0  0
    2.1434   -1.2375    0.0000 C   0  0  0  0  0  0  0  0  0  0  0  0
    1.4289   -1.6500    0.0000 C   0  0  0  0  0  0  0  0  0  0  0  0
  1  2  1  0  0  0  0
  2  3  1  0  0  0  0
  3  4  2  0  0  0  0
  4  5  1  0  0  0  0
  5  6  1  0  0  0  0
  6  7  2  0  0  0  0
  7  8  1  0  0  0  0
  8  9  2  0  0  0  0
  9 10  1  0  0  0  0
  5 10  2  0  0  0  0
 10 11  1  0  0  0  0
  2 11  2  0  0  0  0
M  END
>  <Catalog ID>
Z234895085

>  <Plate_ID>
2026997-X50-02

>  <Well>
E08

>  <V, µL>
50

>  <Conc, mM>
10

>  <Formula>
C9H8N2

>  <MW>
144.1732

>  <Purity>
100

>  <PO>
5A-64168

>  <MW_salt>
0

>  <Stereochem.data>
Achiral

>  <Geometric.isomer>
None

>  <Chemical name>
quinolin-3-amine

>  <ClogP>
1,702

>  <logS>
-1,85

>  <HBD>
1

>  <HBA>
2

>  <TPSA>
38,91

>  <RotBonds>
0

$$$$

  Mrv1925 04172511382D          

 10 11  0  0  0  0            999 V2000
    3.2789    2.0625    0.0000 N   0  0  0  0  0  0  0  0  0  0  0  0
    3.2789    1.2375    0.0000 C   0  0  0  0  0  0  0  0  0  0  0  0
    3.9934    0.8250    0.0000 C   0  0  0  0  0  0  0  0  0  0  0  0
    3.9934    0.0000    0.0000 C   0  0  0  0  0  0  0  0  0  0  0  0
    3.2789   -0.4125    0.0000 C   0  0  0  0  0  0  0  0  0  0  0  0
    2.5645    0.0000    0.0000 C   0  0  0  0  0  0  0  0  0  0  0  0
    1.7798   -0.2549    0.0000 N   0  0  0  0  0  0  0  0  0  0  0  0
    1.2949    0.4125    0.0000 C   0  0  0  0  0  0  0  0  0  0  0  0
    1.7798    1.0799    0.0000 N   0  0  0  0  0  0  0  0  0  0  0  0
    2.5645    0.8250    0.0000 C   0  0  0  0  0  0  0  0  0  0  0  0
  1  2  1  0  0  0  0
  2  3  1  0  0  0  0
  3  4  2  0  0  0  0
  4  5  1  0  0  0  0
  5  6  2  0  0  0  0
  6  7  1  0  0  0  0
  7  8  1  0  0  0  0
  8  9  2  0  0  0  0
  9 10  1  0  0  0  0
  2 10  2  0  0  0  0
  6 10  1  0  0  0  0
M  END
>  <Catalog ID>
Z1259162108

>  <Plate_ID>
2026997-X50-02

>  <Well>
F08

>  <V, µL>
50

>  <Conc, mM>
10

>  <Formula>
C7H7N3

>  <MW>
133.1506

>  <Purity>
90

>  <PO>
5A-64168

>  <MW_salt>
0

>  <Stereochem.data>
Achiral

>  <Geometric.isomer>
None

>  <Chemical name>
1H-1,3-benzodiazol-4-amine

>  <ClogP>
1,013

>  <logS>
-1,39

>  <HBD>
2

>  <HBA>
2

>  <TPSA>
54,7

>  <RotBonds>
0

$$$$

  Mrv1925 04172511382D          

  8  8  0  0  0  0            999 V2000
   -0.1467    2.3518    0.0000 O   0  0  0  0  0  0  0  0  0  0  0  0
    0.5678    1.9393    0.0000 C   0  0  0  0  0  0  0  0  0  0  0  0
    1.2822    2.3518    0.0000 O   0  0  0  0  0  0  0  0  0  0  0  0
    0.5678    1.1143    0.0000 C   0  0  0  0  0  0  0  0  0  0  0  0
    1.2352    0.6294    0.0000 C   0  0  0  0  0  0  0  0  0  0  0  0
    0.9803   -0.1553    0.0000 S   0  0  0  0  0  0  0  0  0  0  0  0
    0.1553   -0.1553    0.0000 C   0  0  0  0  0  0  0  0  0  0  0  0
   -0.0997    0.6294    0.0000 N   0  0  0  0  0  0  0  0  0  0  0  0
  1  2  2  0  0  0  0
  2  3  1  0  0  0  0
  2  4  1  0  0  0  0
  4  5  2  0  0  0  0
  5  6  1  0  0  0  0
  6  7  1  0  0  0  0
  7  8  2  0  0  0  0
  4  8  1  0  0  0  0
M  END
>  <Catalog ID>
Z800222638

>  <Plate_ID>
2026997-X50-02

>  <Well>
G08

>  <V, µL>
50

>  <Conc, mM>
10

>  <Formula>
C4H3NO2S

>  <MW>
129.1371

>  <Purity>
95

>  <PO>
5A-64168

>  <MW_salt>
0

>  <Stereochem.data>
Achiral

>  <Geometric.isomer>
None

>  <Chemical name>
1,3-thiazole-4-carboxylic acid

>  <ClogP>
0,831

>  <logS>
-0,85

>  <HBD>
1

>  <HBA>
3

>  <TPSA>
50,19

>  <RotBonds>
1

$$$$

  Mrv1925 04172511382D          

  8  8  0  0  0  0            999 V2000
    0.7145    2.0625    0.0000 C   0  0  0  0  0  0  0  0  0  0  0  0
    0.7145    1.2375    0.0000 C   0  0  0  0  0  0  0  0  0  0  0  0
    1.4289    0.8250    0.0000 C   0  0  0  0  0  0  0  0  0  0  0  0
    1.4289   -0.0000    0.0000 C   0  0  0  0  0  0  0  0  0  0  0  0
    0.7145   -0.4125    0.0000 C   0  0  0  0  0  0  0  0  0  0  0  0
    0.7145   -1.2375    0.0000 N   0  0  0  0  0  0  0  0  0  0  0  0
    0.0000    0.0000    0.0000 N   0  0  0  0  0  0  0  0  0  0  0  0
    0.0000    0.8250    0.0000 C   0  0  0  0  0  0  0  0  0  0  0  0
  1  2  1  0  0  0  0
  2  3  1  0  0  0  0
  3  4  2  0  0  0  0
  4  5  1  0  0  0  0
  5  6  1  0  0  0  0
  5  7  2  0  0  0  0
  7  8  1  0  0  0  0
  2  8  2  0  0  0  0
M  END
>  <Catalog ID>
Z104475374

>  <Plate_ID>
2026997-X50-02

>  <Well>
H08

>  <V, µL>
50

>  <Conc, mM>
10

>  <Formula>
C6H8N2

>  <MW>
108.1411

>  <Purity>
100

>  <PO>
5A-64168

>  <MW_salt>
0

>  <Stereochem.data>
Achiral

>  <Geometric.isomer>
None

>  <Chemical name>
5-methylpyridin-2-amine

>  <ClogP>
0,817

>  <logS>
-0,86

>  <HBD>
1

>  <HBA>
2

>  <TPSA>
38,91

>  <RotBonds>
0

$$$$

  Mrv1925 04172511382D          

 12 12  0  0  0  0            999 V2000
   -0.7145    3.7125    0.0000 O   0  0  0  0  0  0  0  0  0  0  0  0
    0.0000    3.3000    0.0000 C   0  0  0  0  0  0  0  0  0  0  0  0
    0.7145    3.7125    0.0000 O   0  0  0  0  0  0  0  0  0  0  0  0
    0.0000    2.4750    0.0000 C   0  0  0  0  0  0  0  0  0  0  0  0
    0.7145    2.0625    0.0000 C   0  0  0  0  0  0  0  0  0  0  0  0
    0.7145    1.2375    0.0000 C   0  0  0  0  0  0  0  0  0  0  0  0
    1.4289    0.8250    0.0000 C   0  0  0  0  0  0  0  0  0  0  0  0
    1.4289   -0.0000    0.0000 C   0  0  0  0  0  0  0  0  0  0  0  0
    0.7145   -0.4125    0.0000 C   0  0  0  0  0  0  0  0  0  0  0  0
    0.7145   -1.2375    0.0000 O   0  0  0  0  0  0  0  0  0  0  0  0
    0.0000    0.0000    0.0000 C   0  0  0  0  0  0  0  0  0  0  0  0
    0.0000    0.8250    0.0000 C   0  0  0  0  0  0  0  0  0  0  0  0
  1  2  2  0  0  0  0
  2  3  1  0  0  0  0
  2  4  1  0  0  0  0
  4  5  1  0  0  0  0
  5  6  1  0  0  0  0
  6  7  1  0  0  0  0
  7  8  2  0  0  0  0
  8  9  1  0  0  0  0
  9 10  1  0  0  0  0
  9 11  2  0  0  0  0
 11 12  1  0  0  0  0
  6 12  2  0  0  0  0
M  END
>  <Catalog ID>
Z317038012

>  <Plate_ID>
2026997-X50-02

>  <Well>
A09

>  <V, µL>
50

>  <Conc, mM>
10

>  <Formula>
C9H10O3

>  <MW>
166.1739

>  <Purity>
100

>  <PO>
5A-64168

>  <MW_salt>
0

>  <Stereochem.data>
Achiral

>  <Geometric.isomer>
None

>  <Chemical name>
3-(4-hydroxyphenyl)propanoic acid

>  <ClogP>
1,236

>  <logS>
-0,95

>  <HBD>
2

>  <HBA>
3

>  <TPSA>
57,53

>  <RotBonds>
3

$$$$

  Mrv1925 04172511382D          

 11 11  0  0  0  0            999 V2000
    0.0000    3.3000    0.0000 C   0  0  0  0  0  0  0  0  0  0  0  0
    0.0000    2.4750    0.0000 N   0  0  0  0  0  0  0  0  0  0  0  0
    0.7145    2.0625    0.0000 C   0  0  0  0  0  0  0  0  0  0  0  0
    1.4289    2.4750    0.0000 O   0  0  0  0  0  0  0  0  0  0  0  0
    0.7145    1.2375    0.0000 C   0  0  0  0  0  0  0  0  0  0  0  0
    1.4289    0.8250    0.0000 C   0  0  0  0  0  0  0  0  0  0  0  0
    1.4289   -0.0000    0.0000 C   0  0  0  0  0  0  0  0  0  0  0  0
    2.1434   -0.4125    0.0000 Cl  0  0  0  0  0  0  0  0  0  0  0  0
    0.7145   -0.4125    0.0000 C   0  0  0  0  0  0  0  0  0  0  0  0
    0.0000    0.0000    0.0000 C   0  0  0  0  0  0  0  0  0  0  0  0
    0.0000    0.8250    0.0000 N   0  0  0  0  0  0  0  0  0  0  0  0
  1  2  1  0  0  0  0
  2  3  1  0  0  0  0
  3  4  2  0  0  0  0
  3  5  1  0  0  0  0
  5  6  1  0  0  0  0
  6  7  2  0  0  0  0
  7  8  1  0  0  0  0
  7  9  1  0  0  0  0
  9 10  2  0  0  0  0
 10 11  1  0  0  0  0
  5 11  2  0  0  0  0
M  END
>  <Catalog ID>
Z94601331

>  <Plate_ID>
2026997-X50-02

>  <Well>
B09

>  <V, µL>
50

>  <Conc, mM>
10

>  <Formula>
C7H7ClN2O

>  <MW>
170.5963

>  <Purity>
100

>  <PO>
5A-64168

>  <MW_salt>
0

>  <Stereochem.data>
Achiral

>  <Geometric.isomer>
None

>  <Chemical name>
4-chloro-N-methylpyridine-2-carboxamide

>  <ClogP>
1,25

>  <logS>
-1,51

>  <HBD>
1

>  <HBA>
2

>  <TPSA>
41,99

>  <RotBonds>
1

$$$$

  Mrv1925 04172511382D          

  9  9  0  0  0  0            999 V2000
    0.0000    2.4750    0.0000 O   0  0  0  0  0  0  0  0  0  0  0  0
    0.7145    2.0625    0.0000 C   0  0  0  0  0  0  0  0  0  0  0  0
    0.7145    1.2375    0.0000 C   0  0  0  0  0  0  0  0  0  0  0  0
    1.4289    0.8250    0.0000 C   0  0  0  0  0  0  0  0  0  0  0  0
    1.4289   -0.0000    0.0000 C   0  0  0  0  0  0  0  0  0  0  0  0
    0.7145   -0.4125    0.0000 C   0  0  0  0  0  0  0  0  0  0  0  0
    0.7145   -1.2375    0.0000 Cl  0  0  0  0  0  0  0  0  0  0  0  0
    0.0000    0.0000    0.0000 C   0  0  0  0  0  0  0  0  0  0  0  0
    0.0000    0.8250    0.0000 C   0  0  0  0  0  0  0  0  0  0  0  0
  1  2  1  0  0  0  0
  2  3  1  0  0  0  0
  3  4  1  0  0  0  0
  4  5  2  0  0  0  0
  5  6  1  0  0  0  0
  6  7  1  0  0  0  0
  6  8  2  0  0  0  0
  8  9  1  0  0  0  0
  3  9  2  0  0  0  0
M  END
>  <Catalog ID>
Z104478032

>  <Plate_ID>
2026997-X50-02

>  <Well>
C09

>  <V, µL>
50

>  <Conc, mM>
10

>  <Formula>
C7H7ClO

>  <MW>
142.5829

>  <Purity>
95

>  <PO>
5A-64168

>  <MW_salt>
0

>  <Stereochem.data>
Achiral

>  <Geometric.isomer>
None

>  <Chemical name>
(4-chlorophenyl)methanol

>  <ClogP>
1,817

>  <logS>
-1,69

>  <HBD>
1

>  <HBA>
1

>  <TPSA>
20,23

>  <RotBonds>
1

$$$$

  Mrv1925 04172511382D          

 11 11  0  0  0  0            999 V2000
    0.0000    2.4750    0.0000 C   0  0  0  0  0  0  0  0  0  0  0  0
    0.7145    2.0625    0.0000 C   0  0  0  0  0  0  0  0  0  0  0  0
    0.7145    1.2375    0.0000 C   0  0  0  0  0  0  0  0  0  0  0  0
    1.4289    0.8250    0.0000 C   0  0  0  0  0  0  0  0  0  0  0  0
    1.4289   -0.0000    0.0000 C   0  0  0  0  0  0  0  0  0  0  0  0
    0.7145   -0.4125    0.0000 C   0  0  0  0  0  0  0  0  0  0  0  0
    0.0000    0.0000    0.0000 C   0  0  0  0  0  0  0  0  0  0  0  0
    0.0000    0.8250    0.0000 C   0  0  0  0  0  0  0  0  0  0  0  0
    0.7145   -1.2375    0.0000 C   0  0  0  0  0  0  0  0  0  0  0  0
    1.4289   -1.6500    0.0000 O   0  0  0  0  0  0  0  0  0  0  0  0
   -0.0000   -1.6500    0.0000 O   0  0  0  0  0  0  0  0  0  0  0  0
  1  2  1  0  0  0  0
  2  3  1  0  0  0  0
  3  4  1  0  0  0  0
  4  5  2  0  0  0  0
  5  6  1  0  0  0  0
  6  7  2  0  0  0  0
  7  8  1  0  0  0  0
  3  8  2  0  0  0  0
  6  9  1  0  0  0  0
  9 10  2  0  0  0  0
  9 11  1  0  0  0  0
M  END
>  <Catalog ID>
Z104478474

>  <Plate_ID>
2026997-X50-02

>  <Well>
D09

>  <V, µL>
50

>  <Conc, mM>
10

>  <Formula>
C9H10O2

>  <MW>
150.1745

>  <Purity>
100

>  <PO>
5A-64168

>  <MW_salt>
0

>  <Stereochem.data>
Achiral

>  <Geometric.isomer>
None

>  <Chemical name>
4-ethylbenzoic acid

>  <ClogP>
2,913

>  <logS>
-2,55

>  <HBD>
1

>  <HBA>
2

>  <TPSA>
37,3

>  <RotBonds>
2

$$$$

  Mrv1925 04172511382D          

 11 11  0  0  0  0            999 V2000
    0.7145    2.8875    0.0000 N   0  0  0  0  0  0  0  0  0  0  0  0
    0.7145    2.0625    0.0000 S   0  0  0  0  0  0  0  0  0  0  0  0
   -0.1105    2.0625    0.0000 O   0  0  0  0  0  0  0  0  0  0  0  0
    1.5395    2.0625    0.0000 O   0  0  0  0  0  0  0  0  0  0  0  0
    0.7145    1.2375    0.0000 C   0  0  0  0  0  0  0  0  0  0  0  0
    1.4289    0.8250    0.0000 C   0  0  0  0  0  0  0  0  0  0  0  0
    1.4289   -0.0000    0.0000 C   0  0  0  0  0  0  0  0  0  0  0  0
    0.7145   -0.4125    0.0000 C   0  0  0  0  0  0  0  0  0  0  0  0
    0.0000    0.0000    0.0000 C   0  0  0  0  0  0  0  0  0  0  0  0
    0.0000    0.8250    0.0000 C   0  0  0  0  0  0  0  0  0  0  0  0
   -0.7145    1.2375    0.0000 Cl  0  0  0  0  0  0  0  0  0  0  0  0
  1  2  1  0  0  0  0
  2  3  2  0  0  0  0
  2  4  2  0  0  0  0
  2  5  1  0  0  0  0
  5  6  1  0  0  0  0
  6  7  2  0  0  0  0
  7  8  1  0  0  0  0
  8  9  2  0  0  0  0
  9 10  1  0  0  0  0
  5 10  2  0  0  0  0
 10 11  1  0  0  0  0
M  END
>  <Catalog ID>
Z45415618

>  <Plate_ID>
2026997-X50-02

>  <Well>
E09

>  <V, µL>
50

>  <Conc, mM>
10

>  <Formula>
C6H6ClNO2S

>  <MW>
191.6353

>  <Purity>
100

>  <PO>
5A-64168

>  <MW_salt>
0

>  <Stereochem.data>
Achiral

>  <Geometric.isomer>
None

>  <Chemical name>
2-chlorobenzene-1-sulfonamide

>  <ClogP>
0,964

>  <logS>
-2,1

>  <HBD>
1

>  <HBA>
2

>  <TPSA>
60,16

>  <RotBonds>
1

$$$$

  Mrv1925 04172511382D          

 10 11  0  0  0  0            999 V2000
    4.0668    2.3479    0.0000 F   0  0  0  0  0  0  0  0  0  0  0  0
    3.3523    1.9354    0.0000 C   0  0  0  0  0  0  0  0  0  0  0  0
    3.3523    1.1104    0.0000 C   0  0  0  0  0  0  0  0  0  0  0  0
    2.6378    0.6979    0.0000 C   0  0  0  0  0  0  0  0  0  0  0  0
    1.9233    1.1104    0.0000 C   0  0  0  0  0  0  0  0  0  0  0  0
    1.1387    0.8555    0.0000 N   0  0  0  0  0  0  0  0  0  0  0  0
    0.6538    1.5229    0.0000 C   0  0  0  0  0  0  0  0  0  0  0  0
    1.1387    2.1904    0.0000 C   0  0  0  0  0  0  0  0  0  0  0  0
    1.9233    1.9354    0.0000 C   0  0  0  0  0  0  0  0  0  0  0  0
    2.6378    2.3479    0.0000 C   0  0  0  0  0  0  0  0  0  0  0  0
  1  2  1  0  0  0  0
  2  3  1  0  0  0  0
  3  4  2  0  0  0  0
  4  5  1  0  0  0  0
  5  6  1  0  0  0  0
  6  7  1  0  0  0  0
  7  8  2  0  0  0  0
  8  9  1  0  0  0  0
  5  9  2  0  0  0  0
  9 10  1  0  0  0  0
  2 10  2  0  0  0  0
M  END
>  <Catalog ID>
Z1160902020

>  <Plate_ID>
2026997-X50-02

>  <Well>
F09

>  <V, µL>
50

>  <Conc, mM>
10

>  <Formula>
C8H6FN

>  <MW>
135.1383

>  <Purity>
95

>  <PO>
5A-64168

>  <MW_salt>
0

>  <Stereochem.data>
Achiral

>  <Geometric.isomer>
None

>  <Chemical name>
5-fluoro-1H-indole

>  <ClogP>
2,443

>  <logS>
-2,54

>  <HBD>
1

>  <HBA>
0

>  <TPSA>
15,79

>  <RotBonds>
0

$$$$

  Mrv1925 04172511382D          

 13 14  0  0  0  0            999 V2000
    0.0768   -2.3215    0.0000 O   0  0  0  0  0  0  0  0  0  0  0  0
    0.8838   -2.1500    0.0000 C   0  0  0  0  0  0  0  0  0  0  0  0
    1.4358   -2.7631    0.0000 O   0  0  0  0  0  0  0  0  0  0  0  0
    1.1387   -1.3654    0.0000 C   0  0  0  0  0  0  0  0  0  0  0  0
    0.6538   -0.6979    0.0000 C   0  0  0  0  0  0  0  0  0  0  0  0
    1.1387   -0.0305    0.0000 O   0  0  0  0  0  0  0  0  0  0  0  0
    1.9233   -0.2854    0.0000 C   0  0  0  0  0  0  0  0  0  0  0  0
    2.6378    0.1271    0.0000 C   0  0  0  0  0  0  0  0  0  0  0  0
    3.3523   -0.2854    0.0000 C   0  0  0  0  0  0  0  0  0  0  0  0
    3.3523   -1.1104    0.0000 C   0  0  0  0  0  0  0  0  0  0  0  0
    2.6378   -1.5229    0.0000 C   0  0  0  0  0  0  0  0  0  0  0  0
    2.6378   -2.3479    0.0000 O   0  0  0  0  0  0  0  0  0  0  0  0
    1.9233   -1.1104    0.0000 C   0  0  0  0  0  0  0  0  0  0  0  0
  1  2  2  0  0  0  0
  2  3  1  0  0  0  0
  2  4  1  0  0  0  0
  4  5  2  0  0  0  0
  5  6  1  0  0  0  0
  6  7  1  0  0  0  0
  7  8  1  0  0  0  0
  8  9  1  0  0  0  0
  9 10  1  0  0  0  0
 10 11  1  0  0  0  0
 11 12  2  0  0  0  0
 11 13  1  0  0  0  0
  4 13  1  0  0  0  0
  7 13  2  0  0  0  0
M  END
>  <Catalog ID>
Z1201618250

>  <Plate_ID>
2026997-X50-02

>  <Well>
G09

>  <V, µL>
50

>  <Conc, mM>
10

>  <Formula>
C9H8O4

>  <MW>
180.1574

>  <Purity>
100

>  <PO>
5A-64168

>  <MW_salt>
0

>  <Stereochem.data>
Achiral

>  <Geometric.isomer>
None

>  <Chemical name>
4-oxo-4,5,6,7-tetrahydro-1-benzofuran-3-carboxylic acid

>  <ClogP>
1,309

>  <logS>
-1,38

>  <HBD>
1

>  <HBA>
3

>  <TPSA>
67,51

>  <RotBonds>
1

$$$$

  Mrv1925 04172511382D          

 11 12  0  0  0  0            999 V2000
    4.0668    2.3479    0.0000 F   0  0  0  0  0  0  0  0  0  0  0  0
    3.3523    1.9354    0.0000 C   0  0  0  0  0  0  0  0  0  0  0  0
    3.3523    1.1104    0.0000 C   0  0  0  0  0  0  0  0  0  0  0  0
    2.6378    0.6979    0.0000 C   0  0  0  0  0  0  0  0  0  0  0  0
    2.6378   -0.1271    0.0000 F   0  0  0  0  0  0  0  0  0  0  0  0
    1.9233    1.1104    0.0000 C   0  0  0  0  0  0  0  0  0  0  0  0
    1.1387    0.8555    0.0000 N   0  0  0  0  0  0  0  0  0  0  0  0
    0.6538    1.5229    0.0000 C   0  0  0  0  0  0  0  0  0  0  0  0
    1.1387    2.1904    0.0000 C   0  0  0  0  0  0  0  0  0  0  0  0
    1.9233    1.9354    0.0000 C   0  0  0  0  0  0  0  0  0  0  0  0
    2.6378    2.3479    0.0000 C   0  0  0  0  0  0  0  0  0  0  0  0
  1  2  1  0  0  0  0
  2  3  1  0  0  0  0
  3  4  2  0  0  0  0
  4  5  1  0  0  0  0
  4  6  1  0  0  0  0
  6  7  1  0  0  0  0
  7  8  1  0  0  0  0
  8  9  2  0  0  0  0
  9 10  1  0  0  0  0
  6 10  2  0  0  0  0
 10 11  1  0  0  0  0
  2 11  2  0  0  0  0
M  END
>  <Catalog ID>
Z1201620809

>  <Plate_ID>
2026997-X50-02

>  <Well>
H09

>  <V, µL>
50

>  <Conc, mM>
10

>  <Formula>
C8H5F2N

>  <MW>
153.1288

>  <Purity>
95

>  <PO>
5A-64168

>  <MW_salt>
0

>  <Stereochem.data>
Achiral

>  <Geometric.isomer>
None

>  <Chemical name>
5,7-difluoro-1H-indole

>  <ClogP>
2,645

>  <logS>
-2,84

>  <HBD>
1

>  <HBA>
0

>  <TPSA>
15,79

>  <RotBonds>
0

$$$$

  Mrv1925 04172511382D          

 12 13  0  0  0  0            999 V2000
    0.0768   -2.3215    0.0000 O   0  0  0  0  0  0  0  0  0  0  0  0
    0.8838   -2.1500    0.0000 C   0  0  0  0  0  0  0  0  0  0  0  0
    1.4358   -2.7631    0.0000 O   0  0  0  0  0  0  0  0  0  0  0  0
    1.1387   -1.3654    0.0000 C   0  0  0  0  0  0  0  0  0  0  0  0
    0.6538   -0.6979    0.0000 C   0  0  0  0  0  0  0  0  0  0  0  0
    1.1387   -0.0305    0.0000 N   0  0  0  0  0  0  0  0  0  0  0  0
    1.9233   -0.2854    0.0000 C   0  0  0  0  0  0  0  0  0  0  0  0
    2.6378    0.1271    0.0000 C   0  0  0  0  0  0  0  0  0  0  0  0
    3.3523   -0.2854    0.0000 C   0  0  0  0  0  0  0  0  0  0  0  0
    3.3523   -1.1104    0.0000 C   0  0  0  0  0  0  0  0  0  0  0  0
    2.6378   -1.5229    0.0000 C   0  0  0  0  0  0  0  0  0  0  0  0
    1.9233   -1.1104    0.0000 C   0  0  0  0  0  0  0  0  0  0  0  0
  1  2  2  0  0  0  0
  2  3  1  0  0  0  0
  2  4  1  0  0  0  0
  4  5  2  0  0  0  0
  5  6  1  0  0  0  0
  6  7  1  0  0  0  0
  7  8  2  0  0  0  0
  8  9  1  0  0  0  0
  9 10  2  0  0  0  0
 10 11  1  0  0  0  0
 11 12  2  0  0  0  0
  4 12  1  0  0  0  0
  7 12  1  0  0  0  0
M  END
>  <Catalog ID>
Z89283908

>  <Plate_ID>
2026997-X50-02

>  <Well>
A10

>  <V, µL>
50

>  <Conc, mM>
10

>  <Formula>
C9H7NO2

>  <MW>
161.1574

>  <Purity>
97.38

>  <PO>
5A-64168

>  <MW_salt>
0

>  <Stereochem.data>
Achiral

>  <Geometric.isomer>
None

>  <Chemical name>
1H-indole-3-carboxylic acid

>  <ClogP>
2,131

>  <logS>
-2,33

>  <HBD>
2

>  <HBA>
2

>  <TPSA>
53,09

>  <RotBonds>
1

$$$$

  Mrv1925 04172511382D          

 11 12  0  0  0  0            999 V2000
    0.0000   -1.6500    0.0000 O   0  0  0  0  0  0  0  0  0  0  0  0
    0.7145   -1.2375    0.0000 C   0  0  0  0  0  0  0  0  0  0  0  0
    0.7145   -0.4125    0.0000 C   0  0  0  0  0  0  0  0  0  0  0  0
    1.4289    0.0000    0.0000 C   0  0  0  0  0  0  0  0  0  0  0  0
    2.1434   -0.4125    0.0000 C   0  0  0  0  0  0  0  0  0  0  0  0
    2.8579    0.0000    0.0000 C   0  0  0  0  0  0  0  0  0  0  0  0
    3.5724   -0.4125    0.0000 C   0  0  0  0  0  0  0  0  0  0  0  0
    3.5724   -1.2375    0.0000 C   0  0  0  0  0  0  0  0  0  0  0  0
    2.8579   -1.6500    0.0000 C   0  0  0  0  0  0  0  0  0  0  0  0
    2.1434   -1.2375    0.0000 C   0  0  0  0  0  0  0  0  0  0  0  0
    1.4289   -1.6500    0.0000 O   0  0  0  0  0  0  0  0  0  0  0  0
  1  2  2  0  0  0  0
  2  3  1  0  0  0  0
  3  4  2  0  0  0  0
  4  5  1  0  0  0  0
  5  6  1  0  0  0  0
  6  7  2  0  0  0  0
  7  8  1  0  0  0  0
  8  9  2  0  0  0  0
  9 10  1  0  0  0  0
  5 10  2  0  0  0  0
 10 11  1  0  0  0  0
  2 11  1  0  0  0  0
M  END
>  <Catalog ID>
Z57169486

>  <Plate_ID>
2026997-X50-02

>  <Well>
B10

>  <V, µL>
50

>  <Conc, mM>
10

>  <Formula>
C9H6O2

>  <MW>
146.1427

>  <Purity>
100

>  <PO>
5A-64168

>  <MW_salt>
0

>  <Stereochem.data>
Achiral

>  <Geometric.isomer>
None

>  <Chemical name>
2H-chromen-2-one

>  <ClogP>
1,412

>  <logS>
-2,55

>  <HBD>
0

>  <HBA>
1

>  <TPSA>
26,3

>  <RotBonds>
0

$$$$

  Mrv1925 04172511382D          

 15 16  0  0  0  0            999 V2000
    0.7145   -0.4125    0.0000 C   0  0  0  0  0  0  0  0  0  0  0  0
    0.7145   -1.2375    0.0000 C   0  0  0  0  0  0  0  0  0  0  0  0
    1.3819   -1.7224    0.0000 O   0  0  0  0  0  0  0  0  0  0  0  0
    1.1270   -2.5070    0.0000 N   0  0  0  0  0  0  0  0  0  0  0  0
    0.3020   -2.5070    0.0000 C   0  0  0  0  0  0  0  0  0  0  0  0
    0.0470   -1.7224    0.0000 C   0  0  0  0  0  0  0  0  0  0  0  0
   -0.7376   -1.4675    0.0000 C   0  0  0  0  0  0  0  0  0  0  0  0
   -0.9091   -0.6605    0.0000 O   0  0  0  0  0  0  0  0  0  0  0  0
   -1.3507   -2.0195    0.0000 O   0  0  0  0  0  0  0  0  0  0  0  0
   -0.1830   -3.1745    0.0000 C   0  0  0  0  0  0  0  0  0  0  0  0
    0.1526   -3.9282    0.0000 C   0  0  0  0  0  0  0  0  0  0  0  0
   -0.3323   -4.5956    0.0000 C   0  0  0  0  0  0  0  0  0  0  0  0
   -1.1528   -4.5094    0.0000 C   0  0  0  0  0  0  0  0  0  0  0  0
   -1.4884   -3.7557    0.0000 C   0  0  0  0  0  0  0  0  0  0  0  0
   -1.0034   -3.0882    0.0000 C   0  0  0  0  0  0  0  0  0  0  0  0
  1  2  1  0  0  0  0
  2  3  1  0  0  0  0
  3  4  1  0  0  0  0
  4  5  2  0  0  0  0
  5  6  1  0  0  0  0
  2  6  2  0  0  0  0
  6  7  1  0  0  0  0
  7  8  2  0  0  0  0
  7  9  1  0  0  0  0
  5 10  1  0  0  0  0
 10 11  1  0  0  0  0
 11 12  2  0  0  0  0
 12 13  1  0  0  0  0
 13 14  2  0  0  0  0
 14 15  1  0  0  0  0
 10 15  2  0  0  0  0
M  END
>  <Catalog ID>
Z104482458

>  <Plate_ID>
2026997-X50-02

>  <Well>
C10

>  <V, µL>
50

>  <Conc, mM>
10

>  <Formula>
C11H9NO3

>  <MW>
203.1941

>  <Purity>
100

>  <PO>
5A-64168

>  <MW_salt>
0

>  <Stereochem.data>
Achiral

>  <Geometric.isomer>
None

>  <Chemical name>
5-methyl-3-phenyl-1,2-oxazole-4-carboxylic acid

>  <ClogP>
1,614

>  <logS>
-2,36

>  <HBD>
1

>  <HBA>
3

>  <TPSA>
63,33

>  <RotBonds>
2

$$$$

  Mrv1925 04172511382D          

 10 11  0  0  0  0            999 V2000
    0.8838   -2.1500    0.0000 N   0  0  0  0  0  0  0  0  0  0  0  0
    1.1387   -1.3654    0.0000 C   0  0  0  0  0  0  0  0  0  0  0  0
    0.6538   -0.6979    0.0000 N   0  0  0  0  0  0  0  0  0  0  0  0
    1.1387   -0.0305    0.0000 N   0  0  0  0  0  0  0  0  0  0  0  0
    1.9233   -0.2854    0.0000 C   0  0  0  0  0  0  0  0  0  0  0  0
    2.6378    0.1271    0.0000 C   0  0  0  0  0  0  0  0  0  0  0  0
    3.3523   -0.2854    0.0000 C   0  0  0  0  0  0  0  0  0  0  0  0
    3.3523   -1.1104    0.0000 C   0  0  0  0  0  0  0  0  0  0  0  0
    2.6378   -1.5229    0.0000 C   0  0  0  0  0  0  0  0  0  0  0  0
    1.9233   -1.1104    0.0000 C   0  0  0  0  0  0  0  0  0  0  0  0
  1  2  1  0  0  0  0
  2  3  2  0  0  0  0
  3  4  1  0  0  0  0
  4  5  1  0  0  0  0
  5  6  1  0  0  0  0
  6  7  2  0  0  0  0
  7  8  1  0  0  0  0
  8  9  2  0  0  0  0
  9 10  1  0  0  0  0
  2 10  1  0  0  0  0
  5 10  2  0  0  0  0
M  END
>  <Catalog ID>
Z56820416

>  <Plate_ID>
2026997-X50-02

>  <Well>
D10

>  <V, µL>
50

>  <Conc, mM>
10

>  <Formula>
C7H7N3

>  <MW>
133.1506

>  <Purity>
100

>  <PO>
5A-64168

>  <MW_salt>
0

>  <Stereochem.data>
Achiral

>  <Geometric.isomer>
None

>  <Chemical name>
1H-indazol-3-amine

>  <ClogP>
1,248

>  <logS>
-2,32

>  <HBD>
2

>  <HBA>
2

>  <TPSA>
54,7

>  <RotBonds>
0

$$$$

  Mrv1925 04172511382D          

 13 14  0  0  0  0            999 V2000
    4.0668    2.3479    0.0000 C   0  0  0  0  0  0  0  0  0  0  0  0
    3.3523    1.9354    0.0000 C   0  0  0  0  0  0  0  0  0  0  0  0
    3.3523    1.1104    0.0000 C   0  0  0  0  0  0  0  0  0  0  0  0
    2.6378    0.6979    0.0000 C   0  0  0  0  0  0  0  0  0  0  0  0
    1.9233    1.1104    0.0000 C   0  0  0  0  0  0  0  0  0  0  0  0
    1.1387    0.8555    0.0000 C   0  0  0  0  0  0  0  0  0  0  0  0
    0.6538    1.5229    0.0000 C   0  0  0  0  0  0  0  0  0  0  0  0
    1.1387    2.1904    0.0000 N   0  0  0  0  0  0  0  0  0  0  0  0
    1.9233    1.9354    0.0000 C   0  0  0  0  0  0  0  0  0  0  0  0
    2.6378    2.3479    0.0000 C   0  0  0  0  0  0  0  0  0  0  0  0
   -0.1712    1.5229    0.0000 C   0  0  0  0  0  0  0  0  0  0  0  0
   -0.5837    0.8085    0.0000 O   0  0  0  0  0  0  0  0  0  0  0  0
   -0.5837    2.2374    0.0000 O   0  0  0  0  0  0  0  0  0  0  0  0
  1  2  1  0  0  0  0
  2  3  1  0  0  0  0
  3  4  2  0  0  0  0
  4  5  1  0  0  0  0
  5  6  1  0  0  0  0
  6  7  2  0  0  0  0
  7  8  1  0  0  0  0
  8  9  1  0  0  0  0
  5  9  2  0  0  0  0
  9 10  1  0  0  0  0
  2 10  2  0  0  0  0
  7 11  1  0  0  0  0
 11 12  2  0  0  0  0
 11 13  1  0  0  0  0
M  END
>  <Catalog ID>
Z119989628

>  <Plate_ID>
2026997-X50-02

>  <Well>
E10

>  <V, µL>
50

>  <Conc, mM>
10

>  <Formula>
C10H9NO2

>  <MW>
175.184

>  <Purity>
100

>  <PO>
5A-64168

>  <MW_salt>
0

>  <Stereochem.data>
Achiral

>  <Geometric.isomer>
None

>  <Chemical name>
6-methyl-1H-indole-2-carboxylic acid

>  <ClogP>
2,63

>  <logS>
-3,17

>  <HBD>
2

>  <HBA>
2

>  <TPSA>
53,09

>  <RotBonds>
1

$$$$

  Mrv1925 04172511382D          

 15 16  0  0  0  0            999 V2000
    0.0000   -1.6500    0.0000 O   0  0  0  0  0  0  0  0  0  0  0  0
    0.7145   -1.2375    0.0000 C   0  0  0  0  0  0  0  0  0  0  0  0
    0.7145   -0.4125    0.0000 C   0  0  0  0  0  0  0  0  0  0  0  0
    1.4289    0.0000    0.0000 N   0  0  0  0  0  0  0  0  0  0  0  0
    2.1434   -0.4125    0.0000 C   0  0  0  0  0  0  0  0  0  0  0  0
    2.8579    0.0000    0.0000 C   0  0  0  0  0  0  0  0  0  0  0  0
    3.5724   -0.4125    0.0000 C   0  0  0  0  0  0  0  0  0  0  0  0
    3.5724   -1.2375    0.0000 C   0  0  0  0  0  0  0  0  0  0  0  0
    2.8579   -1.6500    0.0000 C   0  0  0  0  0  0  0  0  0  0  0  0
    2.1434   -1.2375    0.0000 C   0  0  0  0  0  0  0  0  0  0  0  0
    1.4289   -1.6500    0.0000 N   0  0  0  0  0  0  0  0  0  0  0  0
    4.2868   -1.6500    0.0000 C   0  0  0  0  0  0  0  0  0  0  0  0
    5.0013   -2.0625    0.0000 F   0  0  0  0  0  0  0  0  0  0  0  0
    3.8743   -2.3645    0.0000 F   0  0  0  0  0  0  0  0  0  0  0  0
    4.6993   -0.9355    0.0000 F   0  0  0  0  0  0  0  0  0  0  0  0
  1  2  2  0  0  0  0
  2  3  1  0  0  0  0
  3  4  1  0  0  0  0
  4  5  1  0  0  0  0
  5  6  1  0  0  0  0
  6  7  2  0  0  0  0
  7  8  1  0  0  0  0
  8  9  2  0  0  0  0
  9 10  1  0  0  0  0
  5 10  2  0  0  0  0
 10 11  1  0  0  0  0
  2 11  1  0  0  0  0
  8 12  1  0  0  0  0
 12 13  1  0  0  0  0
 12 14  1  0  0  0  0
 12 15  1  0  0  0  0
M  END
>  <Catalog ID>
Z147641710

>  <Plate_ID>
2026997-X50-02

>  <Well>
F10

>  <V, µL>
50

>  <Conc, mM>
10

>  <Formula>
C9H7F3N2O

>  <MW>
216.1599

>  <Purity>
98.47

>  <PO>
5A-64168

>  <MW_salt>
0

>  <Stereochem.data>
Achiral

>  <Geometric.isomer>
None

>  <Chemical name>
7-(trifluoromethyl)-1,2,3,4-tetrahydroquinoxalin-2-one

>  <ClogP>
1,977

>  <logS>
-2,31

>  <HBD>
2

>  <HBA>
2

>  <TPSA>
41,13

>  <RotBonds>
1

$$$$

  Mrv1925 04172511382D          

 10 11  0  0  0  0            999 V2000
    3.2789    2.0625    0.0000 N   0  0  0  0  0  0  0  0  0  0  0  0
    3.2789    1.2375    0.0000 C   0  0  0  0  0  0  0  0  0  0  0  0
    3.9934    0.8250    0.0000 C   0  0  0  0  0  0  0  0  0  0  0  0
    3.9934    0.0000    0.0000 C   0  0  0  0  0  0  0  0  0  0  0  0
    3.2789   -0.4125    0.0000 C   0  0  0  0  0  0  0  0  0  0  0  0
    2.5645    0.0000    0.0000 C   0  0  0  0  0  0  0  0  0  0  0  0
    1.7798   -0.2549    0.0000 C   0  0  0  0  0  0  0  0  0  0  0  0
    1.2949    0.4125    0.0000 N   0  0  0  0  0  0  0  0  0  0  0  0
    1.7798    1.0799    0.0000 N   0  0  0  0  0  0  0  0  0  0  0  0
    2.5645    0.8250    0.0000 C   0  0  0  0  0  0  0  0  0  0  0  0
  1  2  1  0  0  0  0
  2  3  1  0  0  0  0
  3  4  2  0  0  0  0
  4  5  1  0  0  0  0
  5  6  2  0  0  0  0
  6  7  1  0  0  0  0
  7  8  2  0  0  0  0
  8  9  1  0  0  0  0
  9 10  1  0  0  0  0
  2 10  2  0  0  0  0
  6 10  1  0  0  0  0
M  END
>  <Catalog ID>
Z235348069

>  <Plate_ID>
2026997-X50-02

>  <Well>
G10

>  <V, µL>
50

>  <Conc, mM>
10

>  <Formula>
C7H7N3

>  <MW>
133.1506

>  <Purity>
100

>  <PO>
5A-64168

>  <MW_salt>
0

>  <Stereochem.data>
Achiral

>  <Geometric.isomer>
None

>  <Chemical name>
1H-indazol-7-amine

>  <ClogP>
1,036

>  <logS>
-1,77

>  <HBD>
2

>  <HBA>
2

>  <TPSA>
54,7

>  <RotBonds>
0

$$$$

  Mrv1925 04172511382D          

 13 13  0  0  0  0            999 V2000
    0.7145    2.8875    0.0000 N   0  0  0  0  0  0  0  0  0  0  0  0
    0.7145    2.0625    0.0000 S   0  0  0  0  0  0  0  0  0  0  0  0
   -0.1105    2.0625    0.0000 O   0  0  0  0  0  0  0  0  0  0  0  0
    1.5395    2.0625    0.0000 O   0  0  0  0  0  0  0  0  0  0  0  0
    0.7145    1.2375    0.0000 C   0  0  0  0  0  0  0  0  0  0  0  0
    1.4289    0.8250    0.0000 C   0  0  0  0  0  0  0  0  0  0  0  0
    1.4289   -0.0000    0.0000 C   0  0  0  0  0  0  0  0  0  0  0  0
    0.7145   -0.4125    0.0000 C   0  0  0  0  0  0  0  0  0  0  0  0
    0.0000    0.0000    0.0000 C   0  0  0  0  0  0  0  0  0  0  0  0
    0.0000    0.8250    0.0000 C   0  0  0  0  0  0  0  0  0  0  0  0
    0.7145   -1.2375    0.0000 C   0  0  0  0  0  0  0  0  0  0  0  0
    1.4289   -1.6500    0.0000 O   0  0  0  0  0  0  0  0  0  0  0  0
   -0.0000   -1.6500    0.0000 O   0  0  0  0  0  0  0  0  0  0  0  0
  1  2  1  0  0  0  0
  2  3  2  0  0  0  0
  2  4  2  0  0  0  0
  2  5  1  0  0  0  0
  5  6  1  0  0  0  0
  6  7  2  0  0  0  0
  7  8  1  0  0  0  0
  8  9  2  0  0  0  0
  9 10  1  0  0  0  0
  5 10  2  0  0  0  0
  8 11  1  0  0  0  0
 11 12  2  0  0  0  0
 11 13  1  0  0  0  0
M  END
>  <Catalog ID>
Z53021532

>  <Plate_ID>
2026997-X50-02

>  <Well>
H10

>  <V, µL>
50

>  <Conc, mM>
10

>  <Formula>
C7H7NO4S

>  <MW>
201.1998

>  <Purity>
95.89

>  <PO>
5A-64168

>  <MW_salt>
0

>  <Stereochem.data>
Achiral

>  <Geometric.isomer>
None

>  <Chemical name>
4-sulfamoylbenzoic acid

>  <ClogP>
0,452

>  <logS>
-1,48

>  <HBD>
2

>  <HBA>
4

>  <TPSA>
97,46

>  <RotBonds>
2

$$$$

  Mrv1925 04172511382D          

 11 12  0  0  0  0            999 V2000
   -0.1712   -0.6979    0.0000 N   0  0  0  0  0  0  0  0  0  0  0  0
    0.6538   -0.6979    0.0000 C   0  0  0  0  0  0  0  0  0  0  0  0
    1.1387   -0.0305    0.0000 N   0  0  0  0  0  0  0  0  0  0  0  0
    1.9233   -0.2854    0.0000 C   0  0  0  0  0  0  0  0  0  0  0  0
    2.6378    0.1271    0.0000 C   0  0  0  0  0  0  0  0  0  0  0  0
    3.3523   -0.2854    0.0000 C   0  0  0  0  0  0  0  0  0  0  0  0
    3.3523   -1.1104    0.0000 C   0  0  0  0  0  0  0  0  0  0  0  0
    4.0668   -1.5229    0.0000 F   0  0  0  0  0  0  0  0  0  0  0  0
    2.6378   -1.5229    0.0000 C   0  0  0  0  0  0  0  0  0  0  0  0
    1.9233   -1.1104    0.0000 C   0  0  0  0  0  0  0  0  0  0  0  0
    1.1387   -1.3654    0.0000 S   0  0  0  0  0  0  0  0  0  0  0  0
  1  2  1  0  0  0  0
  2  3  2  0  0  0  0
  3  4  1  0  0  0  0
  4  5  1  0  0  0  0
  5  6  2  0  0  0  0
  6  7  1  0  0  0  0
  7  8  1  0  0  0  0
  7  9  2  0  0  0  0
  9 10  1  0  0  0  0
  4 10  2  0  0  0  0
 10 11  1  0  0  0  0
  2 11  1  0  0  0  0
M  END
>  <Catalog ID>
Z56899125

>  <Plate_ID>
2026997-X50-02

>  <Well>
A11

>  <V, µL>
50

>  <Conc, mM>
10

>  <Formula>
C7H5FN2S

>  <MW>
168.1914

>  <Purity>
96.22

>  <PO>
5A-64168

>  <MW_salt>
0

>  <Stereochem.data>
Achiral

>  <Geometric.isomer>
None

>  <Chemical name>
6-fluoro-1,3-benzothiazol-2-amine

>  <ClogP>
1,975

>  <logS>
-2,81

>  <HBD>
1

>  <HBA>
2

>  <TPSA>
38,91

>  <RotBonds>
0

$$$$

  Mrv1925 04172511382D          

  9  9  0  0  0  0            999 V2000
    0.7145    2.0625    0.0000 N   0  0  0  0  0  0  0  0  0  0  0  0
    0.7145    1.2375    0.0000 C   0  0  0  0  0  0  0  0  0  0  0  0
    1.4289    0.8250    0.0000 C   0  0  0  0  0  0  0  0  0  0  0  0
    1.4289   -0.0000    0.0000 C   0  0  0  0  0  0  0  0  0  0  0  0
    0.7145   -0.4125    0.0000 C   0  0  0  0  0  0  0  0  0  0  0  0
    0.0000    0.0000    0.0000 C   0  0  0  0  0  0  0  0  0  0  0  0
    0.0000    0.8250    0.0000 C   0  0  0  0  0  0  0  0  0  0  0  0
   -0.7145    1.2375    0.0000 C   0  0  0  0  0  0  0  0  0  0  0  0
   -1.4289    0.8250    0.0000 O   0  0  0  0  0  0  0  0  0  0  0  0
  1  2  1  0  0  0  0
  2  3  1  0  0  0  0
  3  4  2  0  0  0  0
  4  5  1  0  0  0  0
  5  6  2  0  0  0  0
  6  7  1  0  0  0  0
  2  7  2  0  0  0  0
  7  8  1  0  0  0  0
  8  9  1  0  0  0  0
M  END
>  <Catalog ID>
Z104495736

>  <Plate_ID>
2026997-X50-02

>  <Well>
B11

>  <V, µL>
50

>  <Conc, mM>
10

>  <Formula>
C7H9NO

>  <MW>
123.1525

>  <Purity>
95

>  <PO>
5A-64168

>  <MW_salt>
0

>  <Stereochem.data>
Achiral

>  <Geometric.isomer>
None

>  <Chemical name>
(2-aminophenyl)methanol

>  <ClogP>
-0,173

>  <logS>
-0,74

>  <HBD>
2

>  <HBA>
2

>  <TPSA>
46,25

>  <RotBonds>
1

$$$$

  Mrv1925 04172511382D          

 10 10  0  0  0  0            999 V2000
    0.0000    2.4750    0.0000 N   0  0  0  0  0  0  0  0  0  0  0  0
    0.7145    2.0625    0.0000 C   0  0  0  0  0  0  0  0  0  0  0  0
    1.4289    2.4750    0.0000 O   0  0  0  0  0  0  0  0  0  0  0  0
    0.7145    1.2375    0.0000 C   0  0  0  0  0  0  0  0  0  0  0  0
    1.4289    0.8250    0.0000 C   0  0  0  0  0  0  0  0  0  0  0  0
    1.4289   -0.0000    0.0000 C   0  0  0  0  0  0  0  0  0  0  0  0
    0.7145   -0.4125    0.0000 C   0  0  0  0  0  0  0  0  0  0  0  0
    0.7145   -1.2375    0.0000 O   0  0  0  0  0  0  0  0  0  0  0  0
    0.0000    0.0000    0.0000 C   0  0  0  0  0  0  0  0  0  0  0  0
    0.0000    0.8250    0.0000 C   0  0  0  0  0  0  0  0  0  0  0  0
  1  2  1  0  0  0  0
  2  3  2  0  0  0  0
  2  4  1  0  0  0  0
  4  5  1  0  0  0  0
  5  6  2  0  0  0  0
  6  7  1  0  0  0  0
  7  8  1  0  0  0  0
  7  9  2  0  0  0  0
  9 10  1  0  0  0  0
  4 10  2  0  0  0  0
M  END
>  <Catalog ID>
Z104502228

>  <Plate_ID>
2026997-X50-02

>  <Well>
C11

>  <V, µL>
50

>  <Conc, mM>
10

>  <Formula>
C7H7NO2

>  <MW>
137.136

>  <Purity>
98

>  <PO>
5A-64168

>  <MW_salt>
0

>  <Stereochem.data>
Achiral

>  <Geometric.isomer>
None

>  <Chemical name>
4-hydroxybenzamide

>  <ClogP>
0,327

>  <logS>
-1,17

>  <HBD>
2

>  <HBA>
2

>  <TPSA>
63,32

>  <RotBonds>
1

$$$$

  Mrv1925 04172511382D          

 13 14  0  0  0  0            999 V2000
    2.1434   -2.8875    0.0000 C   0  0  0  0  0  0  0  0  0  0  0  0
    1.4289   -2.4750    0.0000 C   0  0  0  0  0  0  0  0  0  0  0  0
    1.4289   -1.6500    0.0000 C   0  0  0  0  0  0  0  0  0  0  0  0
    2.1434   -1.2375    0.0000 C   0  0  0  0  0  0  0  0  0  0  0  0
    2.8579   -1.6500    0.0000 C   0  0  0  0  0  0  0  0  0  0  0  0
    2.8579   -2.4750    0.0000 C   0  0  0  0  0  0  0  0  0  0  0  0
    2.1434   -0.4125    0.0000 C   0  0  0  0  0  0  0  0  0  0  0  0
    2.8579    0.0000    0.0000 C   0  0  0  0  0  0  0  0  0  0  0  0
    2.8579    0.8250    0.0000 C   0  0  0  0  0  0  0  0  0  0  0  0
    3.5724    1.2375    0.0000 C   0  0  0  0  0  0  0  0  0  0  0  0
    4.2868    0.8250    0.0000 N   0  0  0  0  0  0  0  0  0  0  0  0
    4.2868    0.0000    0.0000 C   0  0  0  0  0  0  0  0  0  0  0  0
    3.5724   -0.4125    0.0000 C   0  0  0  0  0  0  0  0  0  0  0  0
  1  2  2  0  0  0  0
  2  3  1  0  0  0  0
  3  4  2  0  0  0  0
  4  5  1  0  0  0  0
  5  6  2  0  0  0  0
  1  6  1  0  0  0  0
  4  7  1  0  0  0  0
  7  8  1  0  0  0  0
  8  9  1  0  0  0  0
  9 10  2  0  0  0  0
 10 11  1  0  0  0  0
 11 12  2  0  0  0  0
 12 13  1  0  0  0  0
  8 13  2  0  0  0  0
M  END
>  <Catalog ID>
Z104477464

>  <Plate_ID>
2026997-X50-02

>  <Well>
D11

>  <V, µL>
50

>  <Conc, mM>
10

>  <Formula>
C12H11N

>  <MW>
169.2224

>  <Purity>
90

>  <PO>
5A-64168

>  <MW_salt>
0

>  <Stereochem.data>
Achiral

>  <Geometric.isomer>
None

>  <Chemical name>
4-benzylpyridine

>  <ClogP>
2,712

>  <logS>
-2,21

>  <HBD>
0

>  <HBA>
1

>  <TPSA>
12,89

>  <RotBonds>
2

$$$$

  Mrv1925 04172511382D          

 15 16  0  0  0  0            999 V2000
    0.0000    0.0000    0.0000 O   0  0  0  0  0  0  0  0  0  0  0  0
    0.7145   -0.4125    0.0000 C   0  0  0  0  0  0  0  0  0  0  0  0
    1.4289    0.0000    0.0000 O   0  0  0  0  0  0  0  0  0  0  0  0
    0.7145   -1.2375    0.0000 C   0  0  0  0  0  0  0  0  0  0  0  0
    1.4289   -1.6500    0.0000 C   0  0  0  0  0  0  0  0  0  0  0  0
    1.4289   -2.4750    0.0000 C   0  0  0  0  0  0  0  0  0  0  0  0
    0.7145   -2.8875    0.0000 C   0  0  0  0  0  0  0  0  0  0  0  0
    0.0000   -2.4750    0.0000 N   0  0  0  0  0  0  0  0  0  0  0  0
    0.0000   -1.6500    0.0000 C   0  0  0  0  0  0  0  0  0  0  0  0
    0.7145   -3.7125    0.0000 C   0  0  0  0  0  0  0  0  0  0  0  0
    1.4289   -4.1250    0.0000 C   0  0  0  0  0  0  0  0  0  0  0  0
    1.4289   -4.9500    0.0000 C   0  0  0  0  0  0  0  0  0  0  0  0
    0.7145   -5.3625    0.0000 C   0  0  0  0  0  0  0  0  0  0  0  0
    0.0000   -4.9500    0.0000 C   0  0  0  0  0  0  0  0  0  0  0  0
    0.0000   -4.1250    0.0000 C   0  0  0  0  0  0  0  0  0  0  0  0
  1  2  2  0  0  0  0
  2  3  1  0  0  0  0
  2  4  1  0  0  0  0
  4  5  1  0  0  0  0
  5  6  2  0  0  0  0
  6  7  1  0  0  0  0
  7  8  2  0  0  0  0
  8  9  1  0  0  0  0
  4  9  2  0  0  0  0
  7 10  1  0  0  0  0
 10 11  1  0  0  0  0
 11 12  2  0  0  0  0
 12 13  1  0  0  0  0
 13 14  2  0  0  0  0
 14 15  1  0  0  0  0
 10 15  2  0  0  0  0
M  END
>  <Catalog ID>
Z1201621962

>  <Plate_ID>
2026997-X50-02

>  <Well>
E11

>  <V, µL>
50

>  <Conc, mM>
10

>  <Formula>
C12H9NO2

>  <MW>
199.2054

>  <Purity>
100

>  <PO>
5A-64168

>  <MW_salt>
0

>  <Stereochem.data>
Achiral

>  <Geometric.isomer>
None

>  <Chemical name>
6-phenylpyridine-3-carboxylic acid

>  <ClogP>
2,897

>  <logS>
-2,708

>  <HBD>
1

>  <HBA>
3

>  <TPSA>
50,19

>  <RotBonds>
2

$$$$

  Mrv1925 04172511382D          

 11 11  0  0  0  0            999 V2000
    0.7145    2.8875    0.0000 N   0  0  0  0  0  0  0  0  0  0  0  0
    0.7145    2.0625    0.0000 S   0  0  0  0  0  0  0  0  0  0  0  0
   -0.1105    2.0625    0.0000 O   0  0  0  0  0  0  0  0  0  0  0  0
    1.5395    2.0625    0.0000 O   0  0  0  0  0  0  0  0  0  0  0  0
    0.7145    1.2375    0.0000 C   0  0  0  0  0  0  0  0  0  0  0  0
    1.4289    0.8250    0.0000 C   0  0  0  0  0  0  0  0  0  0  0  0
    1.4289   -0.0000    0.0000 C   0  0  0  0  0  0  0  0  0  0  0  0
    0.7145   -0.4125    0.0000 C   0  0  0  0  0  0  0  0  0  0  0  0
    0.0000    0.0000    0.0000 C   0  0  0  0  0  0  0  0  0  0  0  0
    0.0000    0.8250    0.0000 C   0  0  0  0  0  0  0  0  0  0  0  0
   -0.7145    1.2375    0.0000 F   0  0  0  0  0  0  0  0  0  0  0  0
  1  2  1  0  0  0  0
  2  3  2  0  0  0  0
  2  4  2  0  0  0  0
  2  5  1  0  0  0  0
  5  6  1  0  0  0  0
  6  7  2  0  0  0  0
  7  8  1  0  0  0  0
  8  9  2  0  0  0  0
  9 10  1  0  0  0  0
  5 10  2  0  0  0  0
 10 11  1  0  0  0  0
M  END
>  <Catalog ID>
Z45415581

>  <Plate_ID>
2026997-X50-02

>  <Well>
F11

>  <V, µL>
50

>  <Conc, mM>
10

>  <Formula>
C6H6FNO2S

>  <MW>
175.1807

>  <Purity>
97.06

>  <PO>
5A-64168

>  <MW_salt>
0

>  <Stereochem.data>
Achiral

>  <Geometric.isomer>
None

>  <Chemical name>
2-fluorobenzene-1-sulfonamide

>  <ClogP>
0,694

>  <logS>
-1,62

>  <HBD>
1

>  <HBA>
2

>  <TPSA>
60,16

>  <RotBonds>
1

$$$$

  Mrv1925 04172511382D          

 10 10  0  0  0  0            999 V2000
    0.0000    3.3000    0.0000 C   0  0  0  0  0  0  0  0  0  0  0  0
    0.0000    2.4750    0.0000 C   0  0  0  0  0  0  0  0  0  0  0  0
    0.7145    2.0625    0.0000 C   0  0  0  0  0  0  0  0  0  0  0  0
    0.7145    1.2375    0.0000 C   0  0  0  0  0  0  0  0  0  0  0  0
    1.4289    0.8250    0.0000 C   0  0  0  0  0  0  0  0  0  0  0  0
    1.4289   -0.0000    0.0000 C   0  0  0  0  0  0  0  0  0  0  0  0
    0.7145   -0.4125    0.0000 C   0  0  0  0  0  0  0  0  0  0  0  0
    0.0000    0.0000    0.0000 C   0  0  0  0  0  0  0  0  0  0  0  0
    0.0000    0.8250    0.0000 C   0  0  0  0  0  0  0  0  0  0  0  0
   -0.7145    1.2375    0.0000 N   0  0  0  0  0  0  0  0  0  0  0  0
  1  2  1  0  0  0  0
  2  3  1  0  0  0  0
  3  4  1  0  0  0  0
  4  5  1  0  0  0  0
  5  6  2  0  0  0  0
  6  7  1  0  0  0  0
  7  8  2  0  0  0  0
  8  9  1  0  0  0  0
  4  9  2  0  0  0  0
  9 10  1  0  0  0  0
M  END
>  <Catalog ID>
Z336087926

>  <Plate_ID>
2026997-X50-02

>  <Well>
G11

>  <V, µL>
50

>  <Conc, mM>
10

>  <Formula>
C9H13N

>  <MW>
135.2062

>  <Purity>
98.07

>  <PO>
5A-64168

>  <MW_salt>
0

>  <Stereochem.data>
Achiral

>  <Geometric.isomer>
None

>  <Chemical name>
2-propylaniline

>  <ClogP>
2,422

>  <logS>
-2,52

>  <HBD>
1

>  <HBA>
1

>  <TPSA>
26,02

>  <RotBonds>
2

$$$$

  Mrv1925 04172511382D          

 12 12  0  0  0  0            999 V2000
    0.7145    2.0625    0.0000 C   0  0  0  0  0  0  0  0  0  0  0  0
    0.7145    1.2375    0.0000 C   0  0  0  0  0  0  0  0  0  0  0  0
    1.4289    0.8250    0.0000 C   0  0  0  0  0  0  0  0  0  0  0  0
    1.4289   -0.0000    0.0000 C   0  0  0  0  0  0  0  0  0  0  0  0
    0.7145   -0.4125    0.0000 C   0  0  0  0  0  0  0  0  0  0  0  0
    0.0000    0.0000    0.0000 C   0  0  0  0  0  0  0  0  0  0  0  0
    0.0000    0.8250    0.0000 C   0  0  0  0  0  0  0  0  0  0  0  0
   -0.7145    1.2375    0.0000 C   0  0  0  0  0  0  0  0  0  0  0  0
   -1.4289    0.8250    0.0000 C   0  0  0  0  0  0  0  0  0  0  0  0
   -2.1434    1.2375    0.0000 C   0  0  0  0  0  0  0  0  0  0  0  0
   -2.8579    0.8250    0.0000 O   0  0  0  0  0  0  0  0  0  0  0  0
   -2.1434    2.0625    0.0000 O   0  0  0  0  0  0  0  0  0  0  0  0
  1  2  1  0  0  0  0
  2  3  1  0  0  0  0
  3  4  2  0  0  0  0
  4  5  1  0  0  0  0
  5  6  2  0  0  0  0
  6  7  1  0  0  0  0
  2  7  2  0  0  0  0
  7  8  1  0  0  0  0
  8  9  1  0  0  0  0
  9 10  1  0  0  0  0
 10 11  2  0  0  0  0
 10 12  1  0  0  0  0
M  END
>  <Catalog ID>
Z317037960

>  <Plate_ID>
2026997-X50-02

>  <Well>
H11

>  <V, µL>
50

>  <Conc, mM>
10

>  <Formula>
C10H12O2

>  <MW>
164.2011

>  <Purity>
100

>  <PO>
5A-64168

>  <MW_salt>
0

>  <Stereochem.data>
Achiral

>  <Geometric.isomer>
None

>  <Chemical name>
3-(2-methylphenyl)propanoic acid

>  <ClogP>
2,352

>  <logS>
-1,86

>  <HBD>
1

>  <HBA>
2

>  <TPSA>
37,3

>  <RotBonds>
3

$$$$

  Mrv1925 04172511382D          

 12 12  0  0  0  0            999 V2000
    0.0000    3.3000    0.0000 O   0  0  0  0  0  0  0  0  0  0  0  0
    0.0000    2.4750    0.0000 C   0  0  0  0  0  0  0  0  0  0  0  0
   -0.7145    2.0625    0.0000 O   0  0  0  0  0  0  0  0  0  0  0  0
    0.7145    2.0625    0.0000 C   0  0  0  0  0  0  0  0  0  0  0  0
    0.7145    1.2375    0.0000 C   0  0  0  0  0  0  0  0  0  0  0  0
    1.4289    0.8250    0.0000 C   0  0  0  0  0  0  0  0  0  0  0  0
    1.4289   -0.0000    0.0000 C   0  0  0  0  0  0  0  0  0  0  0  0
    0.7145   -0.4125    0.0000 C   0  0  0  0  0  0  0  0  0  0  0  0
    0.7145   -1.2375    0.0000 Cl  0  0  0  0  0  0  0  0  0  0  0  0
    0.0000    0.0000    0.0000 C   0  0  0  0  0  0  0  0  0  0  0  0
   -0.7145   -0.4125    0.0000 Cl  0  0  0  0  0  0  0  0  0  0  0  0
    0.0000    0.8250    0.0000 C   0  0  0  0  0  0  0  0  0  0  0  0
  1  2  2  0  0  0  0
  2  3  1  0  0  0  0
  2  4  1  0  0  0  0
  4  5  1  0  0  0  0
  5  6  2  0  0  0  0
  6  7  1  0  0  0  0
  7  8  2  0  0  0  0
  8  9  1  0  0  0  0
  8 10  1  0  0  0  0
 10 11  1  0  0  0  0
 10 12  2  0  0  0  0
  5 12  1  0  0  0  0
M  END
>  <Catalog ID>
Z104476066

>  <Plate_ID>
2026997-X50-03

>  <Well>
A02

>  <V, µL>
50

>  <Conc, mM>
10

>  <Formula>
C8H6Cl2O2

>  <MW>
205.038

>  <Purity>
95

>  <PO>
5A-64168

>  <MW_salt>
0

>  <Stereochem.data>
Achiral

>  <Geometric.isomer>
None

>  <Chemical name>
2-(3,4-dichlorophenyl)acetic acid

>  <ClogP>
2,72

>  <logS>
-2,58

>  <HBD>
1

>  <HBA>
2

>  <TPSA>
37,3

>  <RotBonds>
2

$$$$

  Mrv1925 04172511382D          

 11 11  0  0  0  0            999 V2000
    0.7145    2.0625    0.0000 C   0  0  0  0  0  0  0  0  0  0  0  0
    0.7145    1.2375    0.0000 C   0  0  0  0  0  0  0  0  0  0  0  0
    1.4289    0.8250    0.0000 C   0  0  0  0  0  0  0  0  0  0  0  0
    2.1434    1.2375    0.0000 O   0  0  0  0  0  0  0  0  0  0  0  0
    1.4289   -0.0000    0.0000 C   0  0  0  0  0  0  0  0  0  0  0  0
    0.7145   -0.4125    0.0000 C   0  0  0  0  0  0  0  0  0  0  0  0
    0.0000    0.0000    0.0000 C   0  0  0  0  0  0  0  0  0  0  0  0
    0.0000    0.8250    0.0000 C   0  0  0  0  0  0  0  0  0  0  0  0
   -0.7145    1.2375    0.0000 C   0  0  0  0  0  0  0  0  0  0  0  0
   -1.4289    0.8250    0.0000 O   0  0  0  0  0  0  0  0  0  0  0  0
   -0.7145    2.0625    0.0000 O   0  0  0  0  0  0  0  0  0  0  0  0
  1  2  1  0  0  0  0
  2  3  1  0  0  0  0
  3  4  1  0  0  0  0
  3  5  2  0  0  0  0
  5  6  1  0  0  0  0
  6  7  2  0  0  0  0
  7  8  1  0  0  0  0
  2  8  2  0  0  0  0
  8  9  1  0  0  0  0
  9 10  2  0  0  0  0
  9 11  1  0  0  0  0
M  END
>  <Catalog ID>
Z1201620461

>  <Plate_ID>
2026997-X50-03

>  <Well>
B02

>  <V, µL>
50

>  <Conc, mM>
10

>  <Formula>
C8H8O3

>  <MW>
152.1473

>  <Purity>
100

>  <PO>
5A-64168

>  <MW_salt>
0

>  <Stereochem.data>
Achiral

>  <Geometric.isomer>
None

>  <Chemical name>
3-hydroxy-2-methylbenzoic acid

>  <ClogP>
1,706

>  <logS>
-1,4

>  <HBD>
2

>  <HBA>
3

>  <TPSA>
57,53

>  <RotBonds>
1

$$$$

  Mrv1925 04172511382D          

 17 19  0  0  0  0            999 V2000
    4.0668    2.3479    0.0000 N   0  0  0  0  0  0  0  0  0  0  0  0
    3.3523    1.9354    0.0000 C   0  0  0  0  0  0  0  0  0  0  0  0
    3.3523    1.1104    0.0000 C   0  0  0  0  0  0  0  0  0  0  0  0
    2.6378    0.6979    0.0000 C   0  0  0  0  0  0  0  0  0  0  0  0
    1.9233    1.1104    0.0000 C   0  0  0  0  0  0  0  0  0  0  0  0
    1.1387    0.8555    0.0000 N   0  0  0  0  0  0  0  0  0  0  0  0
    0.6538    1.5229    0.0000 C   0  0  0  0  0  0  0  0  0  0  0  0
   -0.1712    1.5229    0.0000 C   0  0  0  0  0  0  0  0  0  0  0  0
   -0.5837    2.2374    0.0000 C   0  0  0  0  0  0  0  0  0  0  0  0
   -1.4087    2.2374    0.0000 C   0  0  0  0  0  0  0  0  0  0  0  0
   -1.8212    2.9519    0.0000 C   0  0  0  0  0  0  0  0  0  0  0  0
   -1.4087    3.6664    0.0000 C   0  0  0  0  0  0  0  0  0  0  0  0
   -0.5837    3.6664    0.0000 C   0  0  0  0  0  0  0  0  0  0  0  0
   -0.1712    2.9519    0.0000 C   0  0  0  0  0  0  0  0  0  0  0  0
    1.1387    2.1904    0.0000 O   0  0  0  0  0  0  0  0  0  0  0  0
    1.9233    1.9354    0.0000 C   0  0  0  0  0  0  0  0  0  0  0  0
    2.6378    2.3479    0.0000 C   0  0  0  0  0  0  0  0  0  0  0  0
  1  2  1  0  0  0  0
  2  3  1  0  0  0  0
  3  4  2  0  0  0  0
  4  5  1  0  0  0  0
  5  6  1  0  0  0  0
  6  7  2  0  0  0  0
  7  8  1  0  0  0  0
  8  9  1  0  0  0  0
  9 10  1  0  0  0  0
 10 11  2  0  0  0  0
 11 12  1  0  0  0  0
 12 13  2  0  0  0  0
 13 14  1  0  0  0  0
  9 14  2  0  0  0  0
  7 15  1  0  0  0  0
 15 16  1  0  0  0  0
  5 16  2  0  0  0  0
 16 17  1  0  0  0  0
  2 17  2  0  0  0  0
M  END
>  <Catalog ID>
Z361423098

>  <Plate_ID>
2026997-X50-03

>  <Well>
C02

>  <V, µL>
50

>  <Conc, mM>
10

>  <Formula>
C14H12N2O

>  <MW>
224.2579

>  <Purity>
100

>  <PO>
5A-64168

>  <MW_salt>
0

>  <Stereochem.data>
Achiral

>  <Geometric.isomer>
None

>  <Chemical name>
2-benzyl-1,3-benzoxazol-6-amine

>  <ClogP>
2,7

>  <logS>
-2,64

>  <HBD>
1

>  <HBA>
2

>  <TPSA>
52,05

>  <RotBonds>
2

$$$$

  Mrv1925 04172511382D          

  9  9  0  0  0  0            999 V2000
    0.7145    2.0625    0.0000 C   0  0  0  0  0  0  0  0  0  0  0  0
    0.7145    1.2375    0.0000 C   0  0  0  0  0  0  0  0  0  0  0  0
    1.4289    0.8250    0.0000 C   0  0  0  0  0  0  0  0  0  0  0  0
    1.4289   -0.0000    0.0000 C   0  0  0  0  0  0  0  0  0  0  0  0
    2.1434   -0.4125    0.0000 C   0  0  0  0  0  0  0  0  0  0  0  0
    0.7145   -0.4125    0.0000 N   0  0  0  0  0  0  0  0  0  0  0  0
    0.0000    0.0000    0.0000 C   0  0  0  0  0  0  0  0  0  0  0  0
   -0.7145   -0.4125    0.0000 N   0  0  0  0  0  0  0  0  0  0  0  0
    0.0000    0.8250    0.0000 N   0  0  0  0  0  0  0  0  0  0  0  0
  1  2  1  0  0  0  0
  2  3  2  0  0  0  0
  3  4  1  0  0  0  0
  4  5  1  0  0  0  0
  4  6  2  0  0  0  0
  6  7  1  0  0  0  0
  7  8  1  0  0  0  0
  7  9  2  0  0  0  0
  2  9  1  0  0  0  0
M  END
>  <Catalog ID>
Z104501152

>  <Plate_ID>
2026997-X50-03

>  <Well>
D02

>  <V, µL>
50

>  <Conc, mM>
10

>  <Formula>
C6H9N3

>  <MW>
123.1558

>  <Purity>
100

>  <PO>
5A-64168

>  <MW_salt>
0

>  <Stereochem.data>
Achiral

>  <Geometric.isomer>
None

>  <Chemical name>
4,6-dimethylpyrimidin-2-amine

>  <ClogP>
0,674

>  <logS>
-0,86

>  <HBD>
1

>  <HBA>
3

>  <TPSA>
51,8

>  <RotBonds>
0

$$$$

  Mrv1925 04172511382D          

 11 12  0  0  0  0            999 V2000
   -0.1712   -0.6979    0.0000 O   0  0  0  0  0  0  0  0  0  0  0  0
    0.6538   -0.6979    0.0000 C   0  0  0  0  0  0  0  0  0  0  0  0
    1.1387   -0.0305    0.0000 N   0  0  0  0  0  0  0  0  0  0  0  0
    1.9233   -0.2854    0.0000 C   0  0  0  0  0  0  0  0  0  0  0  0
    2.6378    0.1271    0.0000 C   0  0  0  0  0  0  0  0  0  0  0  0
    3.3523   -0.2854    0.0000 C   0  0  0  0  0  0  0  0  0  0  0  0
    3.3523   -1.1104    0.0000 C   0  0  0  0  0  0  0  0  0  0  0  0
    2.6378   -1.5229    0.0000 C   0  0  0  0  0  0  0  0  0  0  0  0
    1.9233   -1.1104    0.0000 C   0  0  0  0  0  0  0  0  0  0  0  0
    1.1387   -1.3654    0.0000 C   0  0  0  0  0  0  0  0  0  0  0  0
    0.8838   -2.1500    0.0000 O   0  0  0  0  0  0  0  0  0  0  0  0
  1  2  2  0  0  0  0
  2  3  1  0  0  0  0
  3  4  1  0  0  0  0
  4  5  1  0  0  0  0
  5  6  2  0  0  0  0
  6  7  1  0  0  0  0
  7  8  2  0  0  0  0
  8  9  1  0  0  0  0
  4  9  2  0  0  0  0
  9 10  1  0  0  0  0
  2 10  1  0  0  0  0
 10 11  2  0  0  0  0
M  END
>  <Catalog ID>
Z57127903

>  <Plate_ID>
2026997-X50-03

>  <Well>
E02

>  <V, µL>
50

>  <Conc, mM>
10

>  <Formula>
C8H5NO2

>  <MW>
147.1308

>  <Purity>
98.75

>  <PO>
5A-64168

>  <MW_salt>
0

>  <Stereochem.data>
Achiral

>  <Geometric.isomer>
None

>  <Chemical name>
2,3-dihydro-1H-indole-2,3-dione

>  <ClogP>
0,828

>  <logS>
-2,05

>  <HBD>
1

>  <HBA>
2

>  <TPSA>
46,17

>  <RotBonds>
0

$$$$

  Mrv1925 04172511382D          

 13 14  0  0  0  0            999 V2000
    0.7145   -0.4125    0.0000 C   0  0  0  0  0  0  0  0  0  0  0  0
    0.7145   -1.2375    0.0000 C   0  0  0  0  0  0  0  0  0  0  0  0
    1.3819   -1.7224    0.0000 N   0  0  0  0  0  0  0  0  0  0  0  0
    1.1270   -2.5070    0.0000 C   0  0  0  0  0  0  0  0  0  0  0  0
    0.3020   -2.5070    0.0000 C   0  0  0  0  0  0  0  0  0  0  0  0
    0.0470   -1.7224    0.0000 S   0  0  0  0  0  0  0  0  0  0  0  0
    1.6119   -3.1745    0.0000 C   0  0  0  0  0  0  0  0  0  0  0  0
    2.4324   -3.0882    0.0000 C   0  0  0  0  0  0  0  0  0  0  0  0
    2.9173   -3.7557    0.0000 C   0  0  0  0  0  0  0  0  0  0  0  0
    2.5817   -4.5094    0.0000 C   0  0  0  0  0  0  0  0  0  0  0  0
    1.7613   -4.5956    0.0000 C   0  0  0  0  0  0  0  0  0  0  0  0
    1.4257   -5.3493    0.0000 N   0  0  0  0  0  0  0  0  0  0  0  0
    1.2763   -3.9282    0.0000 C   0  0  0  0  0  0  0  0  0  0  0  0
  1  2  1  0  0  0  0
  2  3  2  0  0  0  0
  3  4  1  0  0  0  0
  4  5  2  0  0  0  0
  5  6  1  0  0  0  0
  2  6  1  0  0  0  0
  4  7  1  0  0  0  0
  7  8  2  0  0  0  0
  8  9  1  0  0  0  0
  9 10  2  0  0  0  0
 10 11  1  0  0  0  0
 11 12  1  0  0  0  0
 11 13  2  0  0  0  0
  7 13  1  0  0  0  0
M  END
>  <Catalog ID>
Z57984669

>  <Plate_ID>
2026997-X50-03

>  <Well>
F02

>  <V, µL>
50

>  <Conc, mM>
10

>  <Formula>
C10H10N2S

>  <MW>
190.2648

>  <Purity>
100

>  <PO>
5A-64168

>  <MW_salt>
0

>  <Stereochem.data>
Achiral

>  <Geometric.isomer>
None

>  <Chemical name>
3-(2-methyl-1,3-thiazol-4-yl)aniline

>  <ClogP>
2,05

>  <logS>
-2,32

>  <HBD>
1

>  <HBA>
2

>  <TPSA>
38,91

>  <RotBonds>
1

$$$$

  Mrv1925 04172511382D          

 13 14  0  0  0  0            999 V2000
   -0.7302   -2.4931    0.0000 N   0  0  0  0  0  0  0  0  0  0  0  0
    0.0768   -2.3215    0.0000 C   0  0  0  0  0  0  0  0  0  0  0  0
    0.8838   -2.1500    0.0000 C   0  0  0  0  0  0  0  0  0  0  0  0
    1.1387   -1.3654    0.0000 C   0  0  0  0  0  0  0  0  0  0  0  0
    0.6538   -0.6979    0.0000 C   0  0  0  0  0  0  0  0  0  0  0  0
    1.1387   -0.0305    0.0000 N   0  0  0  0  0  0  0  0  0  0  0  0
    1.9233   -0.2854    0.0000 C   0  0  0  0  0  0  0  0  0  0  0  0
    2.6378    0.1271    0.0000 C   0  0  0  0  0  0  0  0  0  0  0  0
    3.3523   -0.2854    0.0000 C   0  0  0  0  0  0  0  0  0  0  0  0
    3.3523   -1.1104    0.0000 C   0  0  0  0  0  0  0  0  0  0  0  0
    4.0668   -1.5229    0.0000 Cl  0  0  0  0  0  0  0  0  0  0  0  0
    2.6378   -1.5229    0.0000 C   0  0  0  0  0  0  0  0  0  0  0  0
    1.9233   -1.1104    0.0000 C   0  0  0  0  0  0  0  0  0  0  0  0
  1  2  3  0  0  0  0
  2  3  1  0  0  0  0
  3  4  1  0  0  0  0
  4  5  2  0  0  0  0
  5  6  1  0  0  0  0
  6  7  1  0  0  0  0
  7  8  1  0  0  0  0
  8  9  2  0  0  0  0
  9 10  1  0  0  0  0
 10 11  1  0  0  0  0
 10 12  2  0  0  0  0
 12 13  1  0  0  0  0
  4 13  1  0  0  0  0
  7 13  2  0  0  0  0
M  END
>  <Catalog ID>
Z1162450204

>  <Plate_ID>
2026997-X50-03

>  <Well>
G02

>  <V, µL>
50

>  <Conc, mM>
10

>  <Formula>
C10H7ClN2

>  <MW>
190.629

>  <Purity>
97.08

>  <PO>
5A-64168

>  <MW_salt>
0

>  <Stereochem.data>
Achiral

>  <Geometric.isomer>
None

>  <Chemical name>
2-(5-chloro-1H-indol-3-yl)acetonitrile

>  <ClogP>
2,435

>  <logS>
-3,19

>  <HBD>
1

>  <HBA>
1

>  <TPSA>
39,58

>  <RotBonds>
1

$$$$

  Mrv1925 04172511382D          

 13 14  0  0  0  0            999 V2000
    4.0668    2.3479    0.0000 C   0  0  0  0  0  0  0  0  0  0  0  0
    3.3523    1.9354    0.0000 C   0  0  0  0  0  0  0  0  0  0  0  0
    3.3523    1.1104    0.0000 C   0  0  0  0  0  0  0  0  0  0  0  0
    2.6378    0.6979    0.0000 C   0  0  0  0  0  0  0  0  0  0  0  0
    1.9233    1.1104    0.0000 C   0  0  0  0  0  0  0  0  0  0  0  0
    1.1387    0.8555    0.0000 C   0  0  0  0  0  0  0  0  0  0  0  0
    0.6538    1.5229    0.0000 C   0  0  0  0  0  0  0  0  0  0  0  0
    1.1387    2.1904    0.0000 N   0  0  0  0  0  0  0  0  0  0  0  0
    1.9233    1.9354    0.0000 C   0  0  0  0  0  0  0  0  0  0  0  0
    2.6378    2.3479    0.0000 C   0  0  0  0  0  0  0  0  0  0  0  0
    0.8838    0.0709    0.0000 C   0  0  0  0  0  0  0  0  0  0  0  0
    1.4358   -0.5422    0.0000 O   0  0  0  0  0  0  0  0  0  0  0  0
    0.0768   -0.1006    0.0000 O   0  0  0  0  0  0  0  0  0  0  0  0
  1  2  1  0  0  0  0
  2  3  1  0  0  0  0
  3  4  2  0  0  0  0
  4  5  1  0  0  0  0
  5  6  1  0  0  0  0
  6  7  2  0  0  0  0
  7  8  1  0  0  0  0
  8  9  1  0  0  0  0
  5  9  2  0  0  0  0
  9 10  1  0  0  0  0
  2 10  2  0  0  0  0
  6 11  1  0  0  0  0
 11 12  2  0  0  0  0
 11 13  1  0  0  0  0
M  END
>  <Catalog ID>
Z385446074

>  <Plate_ID>
2026997-X50-03

>  <Well>
H02

>  <V, µL>
50

>  <Conc, mM>
10

>  <Formula>
C10H9NO2

>  <MW>
175.184

>  <Purity>
98.87

>  <PO>
5A-64168

>  <MW_salt>
0

>  <Stereochem.data>
Achiral

>  <Geometric.isomer>
None

>  <Chemical name>
6-methyl-1H-indole-3-carboxylic acid

>  <ClogP>
2,63

>  <logS>
-2,84

>  <HBD>
2

>  <HBA>
2

>  <TPSA>
53,09

>  <RotBonds>
1

$$$$

  Mrv1925 04172511382D          

 13 14  0  0  0  0            999 V2000
   -0.9962   -0.6979    0.0000 N   0  0  0  0  0  0  0  0  0  0  0  0
   -0.1712   -0.6979    0.0000 S   0  0  0  0  0  0  0  0  0  0  0  0
   -0.1712   -1.5229    0.0000 O   0  0  0  0  0  0  0  0  0  0  0  0
   -0.1712    0.1271    0.0000 O   0  0  0  0  0  0  0  0  0  0  0  0
    0.6538   -0.6979    0.0000 C   0  0  0  0  0  0  0  0  0  0  0  0
    1.1387   -0.0305    0.0000 C   0  0  0  0  0  0  0  0  0  0  0  0
    1.9233   -0.2854    0.0000 C   0  0  0  0  0  0  0  0  0  0  0  0
    2.6378    0.1271    0.0000 C   0  0  0  0  0  0  0  0  0  0  0  0
    3.3523   -0.2854    0.0000 C   0  0  0  0  0  0  0  0  0  0  0  0
    3.3523   -1.1104    0.0000 C   0  0  0  0  0  0  0  0  0  0  0  0
    2.6378   -1.5229    0.0000 C   0  0  0  0  0  0  0  0  0  0  0  0
    1.9233   -1.1104    0.0000 C   0  0  0  0  0  0  0  0  0  0  0  0
    1.1387   -1.3654    0.0000 O   0  0  0  0  0  0  0  0  0  0  0  0
  1  2  1  0  0  0  0
  2  3  2  0  0  0  0
  2  4  2  0  0  0  0
  2  5  1  0  0  0  0
  5  6  2  0  0  0  0
  6  7  1  0  0  0  0
  7  8  2  0  0  0  0
  8  9  1  0  0  0  0
  9 10  2  0  0  0  0
 10 11  1  0  0  0  0
 11 12  2  0  0  0  0
  7 12  1  0  0  0  0
 12 13  1  0  0  0  0
  5 13  1  0  0  0  0
M  END
>  <Catalog ID>
Z1378432729

>  <Plate_ID>
2026997-X50-03

>  <Well>
A03

>  <V, µL>
50

>  <Conc, mM>
10

>  <Formula>
C8H7NO3S

>  <MW>
197.2111

>  <Purity>
98.71

>  <PO>
5A-64168

>  <MW_salt>
0

>  <Stereochem.data>
Achiral

>  <Geometric.isomer>
None

>  <Chemical name>
1-benzofuran-2-sulfonamide

>  <ClogP>
0,865

>  <logS>
-2,72

>  <HBD>
1

>  <HBA>
2

>  <TPSA>
73,3

>  <RotBonds>
1

$$$$

  Mrv1925 04172511382D          

 13 14  0  0  0  0            999 V2000
    0.7145   -2.8875    0.0000 O   0  0  0  0  0  0  0  0  0  0  0  0
    1.4289   -2.4750    0.0000 C   0  0  0  0  0  0  0  0  0  0  0  0
    2.1434   -2.8875    0.0000 O   0  0  0  0  0  0  0  0  0  0  0  0
    1.4289   -1.6500    0.0000 C   0  0  0  0  0  0  0  0  0  0  0  0
    0.7145   -1.2375    0.0000 C   0  0  0  0  0  0  0  0  0  0  0  0
    0.7145   -0.4125    0.0000 C   0  0  0  0  0  0  0  0  0  0  0  0
    1.4289    0.0000    0.0000 C   0  0  0  0  0  0  0  0  0  0  0  0
    2.1434   -0.4125    0.0000 C   0  0  0  0  0  0  0  0  0  0  0  0
    2.8579    0.0000    0.0000 O   0  0  0  0  0  0  0  0  0  0  0  0
    3.5724   -0.4125    0.0000 C   0  0  0  0  0  0  0  0  0  0  0  0
    3.5724   -1.2375    0.0000 C   0  0  0  0  0  0  0  0  0  0  0  0
    2.8579   -1.6500    0.0000 O   0  0  0  0  0  0  0  0  0  0  0  0
    2.1434   -1.2375    0.0000 C   0  0  0  0  0  0  0  0  0  0  0  0
  1  2  2  0  0  0  0
  2  3  1  0  0  0  0
  2  4  1  0  0  0  0
  4  5  1  0  0  0  0
  5  6  2  0  0  0  0
  6  7  1  0  0  0  0
  7  8  2  0  0  0  0
  8  9  1  0  0  0  0
  9 10  1  0  0  0  0
 10 11  1  0  0  0  0
 11 12  1  0  0  0  0
 12 13  1  0  0  0  0
  4 13  2  0  0  0  0
  8 13  1  0  0  0  0
M  END
>  <Catalog ID>
Z316118634

>  <Plate_ID>
2026997-X50-03

>  <Well>
B03

>  <V, µL>
50

>  <Conc, mM>
10

>  <Formula>
C9H8O4

>  <MW>
180.1574

>  <Purity>
100

>  <PO>
5A-64168

>  <MW_salt>
0

>  <Stereochem.data>
Achiral

>  <Geometric.isomer>
None

>  <Chemical name>
2,3-dihydro-1,4-benzodioxine-5-carboxylic acid

>  <ClogP>
1,931

>  <logS>
-2,04

>  <HBD>
1

>  <HBA>
4

>  <TPSA>
55,76

>  <RotBonds>
1

$$$$

  Mrv1925 04172511382D          

 11 12  0  0  0  0            999 V2000
    0.0000   -1.6500    0.0000 N   0  0  0  0  0  0  0  0  0  0  0  0
    0.7145   -1.2375    0.0000 C   0  0  0  0  0  0  0  0  0  0  0  0
    0.7145   -0.4125    0.0000 C   0  0  0  0  0  0  0  0  0  0  0  0
    1.4289    0.0000    0.0000 C   0  0  0  0  0  0  0  0  0  0  0  0
    2.1434   -0.4125    0.0000 C   0  0  0  0  0  0  0  0  0  0  0  0
    2.8579    0.0000    0.0000 N   0  0  0  0  0  0  0  0  0  0  0  0
    3.5724   -0.4125    0.0000 C   0  0  0  0  0  0  0  0  0  0  0  0
    3.5724   -1.2375    0.0000 C   0  0  0  0  0  0  0  0  0  0  0  0
    2.8579   -1.6500    0.0000 C   0  0  0  0  0  0  0  0  0  0  0  0
    2.1434   -1.2375    0.0000 C   0  0  0  0  0  0  0  0  0  0  0  0
    1.4289   -1.6500    0.0000 C   0  0  0  0  0  0  0  0  0  0  0  0
  1  2  1  0  0  0  0
  2  3  1  0  0  0  0
  3  4  2  0  0  0  0
  4  5  1  0  0  0  0
  5  6  1  0  0  0  0
  6  7  2  0  0  0  0
  7  8  1  0  0  0  0
  8  9  2  0  0  0  0
  9 10  1  0  0  0  0
  5 10  2  0  0  0  0
 10 11  1  0  0  0  0
  2 11  2  0  0  0  0
M  END
>  <Catalog ID>
Z255114686

>  <Plate_ID>
2026997-X50-03

>  <Well>
C03

>  <V, µL>
50

>  <Conc, mM>
10

>  <Formula>
C9H8N2

>  <MW>
144.1732

>  <Purity>
100

>  <PO>
5A-64168

>  <MW_salt>
0

>  <Stereochem.data>
Achiral

>  <Geometric.isomer>
None

>  <Chemical name>
quinolin-6-amine

>  <ClogP>
1,477

>  <logS>
-1,85

>  <HBD>
1

>  <HBA>
2

>  <TPSA>
38,91

>  <RotBonds>
0

$$$$

  Mrv1925 04172511382D          

 11 11  0  0  0  0            999 V2000
    0.0000    2.4750    0.0000 C   0  0  0  0  0  0  0  0  0  0  0  0
    0.7145    2.0625    0.0000 C   0  0  0  0  0  0  0  0  0  0  0  0
    1.4289    2.4750    0.0000 O   0  0  0  0  0  0  0  0  0  0  0  0
    0.7145    1.2375    0.0000 C   0  0  0  0  0  0  0  0  0  0  0  0
    1.4289    0.8250    0.0000 C   0  0  0  0  0  0  0  0  0  0  0  0
    1.4289   -0.0000    0.0000 C   0  0  0  0  0  0  0  0  0  0  0  0
    0.7145   -0.4125    0.0000 C   0  0  0  0  0  0  0  0  0  0  0  0
    0.7145   -1.2375    0.0000 O   0  0  0  0  0  0  0  0  0  0  0  0
    0.0000    0.0000    0.0000 C   0  0  0  0  0  0  0  0  0  0  0  0
   -0.7145   -0.4125    0.0000 C   0  0  0  0  0  0  0  0  0  0  0  0
    0.0000    0.8250    0.0000 C   0  0  0  0  0  0  0  0  0  0  0  0
  1  2  1  0  0  0  0
  2  3  2  0  0  0  0
  2  4  1  0  0  0  0
  4  5  1  0  0  0  0
  5  6  2  0  0  0  0
  6  7  1  0  0  0  0
  7  8  1  0  0  0  0
  7  9  2  0  0  0  0
  9 10  1  0  0  0  0
  9 11  1  0  0  0  0
  4 11  2  0  0  0  0
M  END
>  <Catalog ID>
Z57221419

>  <Plate_ID>
2026997-X50-03

>  <Well>
D03

>  <V, µL>
50

>  <Conc, mM>
10

>  <Formula>
C9H10O2

>  <MW>
150.1745

>  <Purity>
100

>  <PO>
5A-64168

>  <MW_salt>
0

>  <Stereochem.data>
Achiral

>  <Geometric.isomer>
None

>  <Chemical name>
1-(4-hydroxy-3-methylphenyl)ethan-1-one

>  <ClogP>
1,904

>  <logS>
-1,63

>  <HBD>
1

>  <HBA>
2

>  <TPSA>
37,3

>  <RotBonds>
1

$$$$

  Mrv1925 04172511382D          

 10 11  0  0  0  0            999 V2000
    4.0668    2.3479    0.0000 C   0  0  0  0  0  0  0  0  0  0  0  0
    3.3523    1.9354    0.0000 C   0  0  0  0  0  0  0  0  0  0  0  0
    3.3523    1.1104    0.0000 C   0  0  0  0  0  0  0  0  0  0  0  0
    2.6378    0.6979    0.0000 C   0  0  0  0  0  0  0  0  0  0  0  0
    1.9233    1.1104    0.0000 C   0  0  0  0  0  0  0  0  0  0  0  0
    1.1387    0.8555    0.0000 N   0  0  0  0  0  0  0  0  0  0  0  0
    0.6538    1.5229    0.0000 C   0  0  0  0  0  0  0  0  0  0  0  0
    1.1387    2.1904    0.0000 C   0  0  0  0  0  0  0  0  0  0  0  0
    1.9233    1.9354    0.0000 C   0  0  0  0  0  0  0  0  0  0  0  0
    2.6378    2.3479    0.0000 C   0  0  0  0  0  0  0  0  0  0  0  0
  1  2  1  0  0  0  0
  2  3  1  0  0  0  0
  3  4  2  0  0  0  0
  4  5  1  0  0  0  0
  5  6  1  0  0  0  0
  6  7  1  0  0  0  0
  7  8  2  0  0  0  0
  8  9  1  0  0  0  0
  5  9  2  0  0  0  0
  9 10  1  0  0  0  0
  2 10  2  0  0  0  0
M  END
>  <Catalog ID>
Z979311300

>  <Plate_ID>
2026997-X50-03

>  <Well>
E03

>  <V, µL>
50

>  <Conc, mM>
10

>  <Formula>
C9H9N

>  <MW>
131.1745

>  <Purity>
100

>  <PO>
5A-64168

>  <MW_salt>
0

>  <Stereochem.data>
Achiral

>  <Geometric.isomer>
None

>  <Chemical name>
5-methyl-1H-indole

>  <ClogP>
2,631

>  <logS>
-2,761

>  <HBD>
1

>  <HBA>
0

>  <TPSA>
15,79

>  <RotBonds>
0

$$$$

  Mrv1925 04172511382D          

  8  8  0  0  0  0            999 V2000
    0.7145    2.0625    0.0000 O   0  0  0  0  0  0  0  0  0  0  0  0
    0.7145    1.2375    0.0000 C   0  0  0  0  0  0  0  0  0  0  0  0
    1.4289    0.8250    0.0000 C   0  0  0  0  0  0  0  0  0  0  0  0
    1.4289   -0.0000    0.0000 C   0  0  0  0  0  0  0  0  0  0  0  0
    0.7145   -0.4125    0.0000 N   0  0  0  0  0  0  0  0  0  0  0  0
    0.0000    0.0000    0.0000 C   0  0  0  0  0  0  0  0  0  0  0  0
   -0.7145   -0.4125    0.0000 O   0  0  0  0  0  0  0  0  0  0  0  0
    0.0000    0.8250    0.0000 N   0  0  0  0  0  0  0  0  0  0  0  0
  1  2  2  0  0  0  0
  2  3  1  0  0  0  0
  3  4  1  0  0  0  0
  4  5  1  0  0  0  0
  5  6  1  0  0  0  0
  6  7  2  0  0  0  0
  6  8  1  0  0  0  0
  2  8  1  0  0  0  0
M  END
>  <Catalog ID>
Z57033885

>  <Plate_ID>
2026997-X50-03

>  <Well>
F03

>  <V, µL>
50

>  <Conc, mM>
10

>  <Formula>
C4H6N2O2

>  <MW>
114.1026

>  <Purity>
100

>  <PO>
5A-64168

>  <MW_salt>
0

>  <Stereochem.data>
Achiral

>  <Geometric.isomer>
None

>  <Chemical name>
1,3-diazinane-2,4-dione

>  <ClogP>
-1,232

>  <logS>
0,34

>  <HBD>
2

>  <HBA>
2

>  <TPSA>
58,2

>  <RotBonds>
0

$$$$

  Mrv1925 04172511382D          

 13 13  0  0  0  0            999 V2000
    0.0000    2.4750    0.0000 C   0  0  0  0  0  0  0  0  0  0  0  0
    0.7145    2.0625    0.0000 O   0  0  0  0  0  0  0  0  0  0  0  0
    0.7145    1.2375    0.0000 C   0  0  0  0  0  0  0  0  0  0  0  0
    1.4289    0.8250    0.0000 C   0  0  0  0  0  0  0  0  0  0  0  0
    1.4289   -0.0000    0.0000 C   0  0  0  0  0  0  0  0  0  0  0  0
    0.7145   -0.4125    0.0000 C   0  0  0  0  0  0  0  0  0  0  0  0
    0.0000    0.0000    0.0000 C   0  0  0  0  0  0  0  0  0  0  0  0
    0.0000    0.8250    0.0000 C   0  0  0  0  0  0  0  0  0  0  0  0
   -0.7145    1.2375    0.0000 O   0  0  0  0  0  0  0  0  0  0  0  0
    2.1434   -0.4125    0.0000 C   0  0  0  0  0  0  0  0  0  0  0  0
    2.1434   -1.2375    0.0000 C   0  0  0  0  0  0  0  0  0  0  0  0
    2.8579   -1.6500    0.0000 O   0  0  0  0  0  0  0  0  0  0  0  0
    1.4289   -1.6500    0.0000 O   0  0  0  0  0  0  0  0  0  0  0  0
  1  2  1  0  0  0  0
  2  3  1  0  0  0  0
  3  4  1  0  0  0  0
  4  5  2  0  0  0  0
  5  6  1  0  0  0  0
  6  7  2  0  0  0  0
  7  8  1  0  0  0  0
  3  8  2  0  0  0  0
  8  9  1  0  0  0  0
  5 10  1  0  0  0  0
 10 11  1  0  0  0  0
 11 12  2  0  0  0  0
 11 13  1  0  0  0  0
M  END
>  <Catalog ID>
Z1203162033

>  <Plate_ID>
2026997-X50-03

>  <Well>
G03

>  <V, µL>
50

>  <Conc, mM>
10

>  <Formula>
C9H10O4

>  <MW>
182.1733

>  <Purity>
96.26

>  <PO>
5A-64168

>  <MW_salt>
0

>  <Stereochem.data>
Achiral

>  <Geometric.isomer>
None

>  <Chemical name>
2-(4-hydroxy-3-methoxyphenyl)acetic acid

>  <ClogP>
0,596

>  <logS>
-0,692

>  <HBD>
2

>  <HBA>
4

>  <TPSA>
66,76

>  <RotBonds>
3

$$$$

  Mrv1925 04172511382D          

 11 11  0  0  0  0            999 V2000
    0.0000    2.4750    0.0000 O   0  0  0  0  0  0  0  0  0  0  0  0
    0.7145    2.0625    0.0000 C   0  0  0  0  0  0  0  0  0  0  0  0
    1.4289    2.4750    0.0000 O   0  0  0  0  0  0  0  0  0  0  0  0
    0.7145    1.2375    0.0000 C   0  0  0  0  0  0  0  0  0  0  0  0
    1.4289    0.8250    0.0000 C   0  0  0  0  0  0  0  0  0  0  0  0
    1.4289   -0.0000    0.0000 C   0  0  0  0  0  0  0  0  0  0  0  0
    0.7145   -0.4125    0.0000 C   0  0  0  0  0  0  0  0  0  0  0  0
    0.7145   -1.2375    0.0000 O   0  0  0  0  0  0  0  0  0  0  0  0
    0.0000    0.0000    0.0000 C   0  0  0  0  0  0  0  0  0  0  0  0
   -0.7145   -0.4125    0.0000 Cl  0  0  0  0  0  0  0  0  0  0  0  0
    0.0000    0.8250    0.0000 C   0  0  0  0  0  0  0  0  0  0  0  0
  1  2  2  0  0  0  0
  2  3  1  0  0  0  0
  2  4  1  0  0  0  0
  4  5  1  0  0  0  0
  5  6  2  0  0  0  0
  6  7  1  0  0  0  0
  7  8  1  0  0  0  0
  7  9  2  0  0  0  0
  9 10  1  0  0  0  0
  9 11  1  0  0  0  0
  4 11  2  0  0  0  0
M  END
>  <Catalog ID>
Z104503564

>  <Plate_ID>
2026997-X50-03

>  <Well>
H03

>  <V, µL>
50

>  <Conc, mM>
10

>  <Formula>
C7H5ClO3

>  <MW>
172.5658

>  <Purity>
98

>  <PO>
5A-64168

>  <MW_salt>
0

>  <Stereochem.data>
Achiral

>  <Geometric.isomer>
None

>  <Chemical name>
3-chloro-4-hydroxybenzoic acid

>  <ClogP>
2,073

>  <logS>
-1,89

>  <HBD>
2

>  <HBA>
3

>  <TPSA>
57,53

>  <RotBonds>
1

$$$$

  Mrv1925 04172511382D          

 10 10  0  0  0  0            999 V2000
    0.7145    2.8875    0.0000 N   0  0  0  0  0  0  0  0  0  0  0  0
    0.7145    2.0625    0.0000 S   0  0  0  0  0  0  0  0  0  0  0  0
   -0.1105    2.0625    0.0000 O   0  0  0  0  0  0  0  0  0  0  0  0
    1.5395    2.0625    0.0000 O   0  0  0  0  0  0  0  0  0  0  0  0
    0.7145    1.2375    0.0000 N   0  0  0  0  0  0  0  0  0  0  0  0
    1.4289    0.8250    0.0000 C   0  0  0  0  0  0  0  0  0  0  0  0
    1.4289   -0.0000    0.0000 C   0  0  0  0  0  0  0  0  0  0  0  0
    0.7145   -0.4125    0.0000 C   0  0  0  0  0  0  0  0  0  0  0  0
    0.0000    0.0000    0.0000 C   0  0  0  0  0  0  0  0  0  0  0  0
    0.0000    0.8250    0.0000 C   0  0  0  0  0  0  0  0  0  0  0  0
  1  2  1  0  0  0  0
  2  3  2  0  0  0  0
  2  4  2  0  0  0  0
  2  5  1  0  0  0  0
  5  6  1  0  0  0  0
  6  7  1  0  0  0  0
  7  8  1  0  0  0  0
  8  9  1  0  0  0  0
  9 10  1  0  0  0  0
  5 10  1  0  0  0  0
M  END
>  <Catalog ID>
Z300095616

>  <Plate_ID>
2026997-X50-03

>  <Well>
A04

>  <V, µL>
50

>  <Conc, mM>
10

>  <Formula>
C5H12N2O2S

>  <MW>
164.226

>  <Purity>
98

>  <PO>
5A-64168

>  <MW_salt>
0

>  <Stereochem.data>
Achiral

>  <Geometric.isomer>
None

>  <Chemical name>
piperidine-1-sulfonamide

>  <ClogP>
0,96

>  <logS>
-0,5

>  <HBD>
1

>  <HBA>
3

>  <TPSA>
63,4

>  <RotBonds>
0

$$$$

  Mrv1925 04172511382D          

 11 11  0  0  0  0            999 V2000
    0.0000    3.3000    0.0000 C   0  0  0  0  0  0  0  0  0  0  0  0
    0.0000    2.4750    0.0000 O   0  0  0  0  0  0  0  0  0  0  0  0
    0.7145    2.0625    0.0000 C   0  0  0  0  0  0  0  0  0  0  0  0
    1.4289    2.4750    0.0000 O   0  0  0  0  0  0  0  0  0  0  0  0
    0.7145    1.2375    0.0000 C   0  0  0  0  0  0  0  0  0  0  0  0
    1.4289    0.8250    0.0000 C   0  0  0  0  0  0  0  0  0  0  0  0
    1.4289   -0.0000    0.0000 C   0  0  0  0  0  0  0  0  0  0  0  0
    0.7145   -0.4125    0.0000 C   0  0  0  0  0  0  0  0  0  0  0  0
    0.7145   -1.2375    0.0000 O   0  0  0  0  0  0  0  0  0  0  0  0
    0.0000    0.0000    0.0000 C   0  0  0  0  0  0  0  0  0  0  0  0
    0.0000    0.8250    0.0000 C   0  0  0  0  0  0  0  0  0  0  0  0
  1  2  1  0  0  0  0
  2  3  1  0  0  0  0
  3  4  2  0  0  0  0
  3  5  1  0  0  0  0
  5  6  1  0  0  0  0
  6  7  2  0  0  0  0
  7  8  1  0  0  0  0
  8  9  1  0  0  0  0
  8 10  2  0  0  0  0
 10 11  1  0  0  0  0
  5 11  2  0  0  0  0
M  END
>  <Catalog ID>
Z19674820

>  <Plate_ID>
2026997-X50-03

>  <Well>
B04

>  <V, µL>
50

>  <Conc, mM>
10

>  <Formula>
C8H8O3

>  <MW>
152.1473

>  <Purity>
98

>  <PO>
5A-64168

>  <MW_salt>
0

>  <Stereochem.data>
Achiral

>  <Geometric.isomer>
None

>  <Chemical name>
methyl 4-hydroxybenzoate

>  <ClogP>
1,985

>  <logS>
-1,3

>  <HBD>
1

>  <HBA>
2

>  <TPSA>
46,53

>  <RotBonds>
2

$$$$

  Mrv1925 04172511382D          

 11 12  0  0  0  0            999 V2000
   -0.4529   -0.9694    0.0000 O   0  0  0  0  0  0  0  0  0  0  0  0
   -0.0404   -0.2549    0.0000 C   0  0  0  0  0  0  0  0  0  0  0  0
   -0.4529    0.4595    0.0000 O   0  0  0  0  0  0  0  0  0  0  0  0
    0.7846   -0.2549    0.0000 C   0  0  0  0  0  0  0  0  0  0  0  0
    1.2695    0.4125    0.0000 C   0  0  0  0  0  0  0  0  0  0  0  0
    2.0542    0.1576    0.0000 C   0  0  0  0  0  0  0  0  0  0  0  0
    2.8388    0.4125    0.0000 S   0  0  0  0  0  0  0  0  0  0  0  0
    3.3237   -0.2549    0.0000 C   0  0  0  0  0  0  0  0  0  0  0  0
    2.8388   -0.9224    0.0000 C   0  0  0  0  0  0  0  0  0  0  0  0
    2.0542   -0.6674    0.0000 C   0  0  0  0  0  0  0  0  0  0  0  0
    1.2695   -0.9224    0.0000 S   0  0  0  0  0  0  0  0  0  0  0  0
  1  2  2  0  0  0  0
  2  3  1  0  0  0  0
  2  4  1  0  0  0  0
  4  5  2  0  0  0  0
  5  6  1  0  0  0  0
  6  7  1  0  0  0  0
  7  8  1  0  0  0  0
  8  9  2  0  0  0  0
  9 10  1  0  0  0  0
  6 10  2  0  0  0  0
 10 11  1  0  0  0  0
  4 11  1  0  0  0  0
M  END
>  <Catalog ID>
Z666140572

>  <Plate_ID>
2026997-X50-03

>  <Well>
C04

>  <V, µL>
50

>  <Conc, mM>
10

>  <Formula>
C7H4O2S2

>  <MW>
184.2355

>  <Purity>
100

>  <PO>
5A-64168

>  <MW_salt>
0

>  <Stereochem.data>
Achiral

>  <Geometric.isomer>
None

>  <Chemical name>
thieno[3,2-b]thiophene-2-carboxylic acid

>  <ClogP>
2,934

>  <logS>
-2,78

>  <HBD>
1

>  <HBA>
2

>  <TPSA>
37,3

>  <RotBonds>
1

$$$$

  Mrv1925 04172511382D          

 14 15  0  0  0  0            999 V2000
    1.4289   -0.0000    0.0000 O   0  0  0  0  0  0  0  0  0  0  0  0
    0.7145   -0.4125    0.0000 C   0  0  0  0  0  0  0  0  0  0  0  0
    0.0000    0.0000    0.0000 O   0  0  0  0  0  0  0  0  0  0  0  0
    0.7145   -1.2375    0.0000 C   0  0  0  0  0  0  0  0  0  0  0  0
    1.3819   -1.7224    0.0000 C   0  0  0  0  0  0  0  0  0  0  0  0
    1.1270   -2.5070    0.0000 N   0  0  0  0  0  0  0  0  0  0  0  0
    0.3020   -2.5070    0.0000 N   0  0  0  0  0  0  0  0  0  0  0  0
    0.0470   -1.7224    0.0000 C   0  0  0  0  0  0  0  0  0  0  0  0
   -0.1830   -3.1745    0.0000 C   0  0  0  0  0  0  0  0  0  0  0  0
    0.1526   -3.9282    0.0000 C   0  0  0  0  0  0  0  0  0  0  0  0
   -0.3323   -4.5956    0.0000 C   0  0  0  0  0  0  0  0  0  0  0  0
   -1.1528   -4.5094    0.0000 C   0  0  0  0  0  0  0  0  0  0  0  0
   -1.4884   -3.7557    0.0000 C   0  0  0  0  0  0  0  0  0  0  0  0
   -1.0034   -3.0882    0.0000 C   0  0  0  0  0  0  0  0  0  0  0  0
  1  2  2  0  0  0  0
  2  3  1  0  0  0  0
  2  4  1  0  0  0  0
  4  5  1  0  0  0  0
  5  6  2  0  0  0  0
  6  7  1  0  0  0  0
  7  8  1  0  0  0  0
  4  8  2  0  0  0  0
  7  9  1  0  0  0  0
  9 10  1  0  0  0  0
 10 11  2  0  0  0  0
 11 12  1  0  0  0  0
 12 13  2  0  0  0  0
 13 14  1  0  0  0  0
  9 14  2  0  0  0  0
M  END
>  <Catalog ID>
Z99601182

>  <Plate_ID>
2026997-X50-03

>  <Well>
D04

>  <V, µL>
50

>  <Conc, mM>
10

>  <Formula>
C10H8N2O2

>  <MW>
188.1827

>  <Purity>
100

>  <PO>
5A-64168

>  <MW_salt>
0

>  <Stereochem.data>
Achiral

>  <Geometric.isomer>
None

>  <Chemical name>
1-phenyl-1H-pyrazole-4-carboxylic acid

>  <ClogP>
2,2

>  <logS>
-1,54

>  <HBD>
1

>  <HBA>
3

>  <TPSA>
55,12

>  <RotBonds>
2

$$$$

  Mrv1925 04172511382D          

  9  9  0  0  0  0            999 V2000
    0.7145    2.0625    0.0000 C   0  0  0  0  0  0  0  0  0  0  0  0
    0.7145    1.2375    0.0000 C   0  0  0  0  0  0  0  0  0  0  0  0
    1.4289    0.8250    0.0000 N   0  0  0  0  0  0  0  0  0  0  0  0
    1.4289   -0.0000    0.0000 C   0  0  0  0  0  0  0  0  0  0  0  0
    2.1434   -0.4125    0.0000 N   0  0  0  0  0  0  0  0  0  0  0  0
    0.7145   -0.4125    0.0000 C   0  0  0  0  0  0  0  0  0  0  0  0
    0.0000    0.0000    0.0000 C   0  0  0  0  0  0  0  0  0  0  0  0
    0.0000    0.8250    0.0000 C   0  0  0  0  0  0  0  0  0  0  0  0
   -0.7145    1.2375    0.0000 Br  0  0  0  0  0  0  0  0  0  0  0  0
  1  2  1  0  0  0  0
  2  3  1  0  0  0  0
  3  4  2  0  0  0  0
  4  5  1  0  0  0  0
  4  6  1  0  0  0  0
  6  7  2  0  0  0  0
  7  8  1  0  0  0  0
  2  8  2  0  0  0  0
  8  9  1  0  0  0  0
M  END
>  <Catalog ID>
Z57376600

>  <Plate_ID>
2026997-X50-03

>  <Well>
E04

>  <V, µL>
50

>  <Conc, mM>
10

>  <Formula>
C6H7BrN2

>  <MW>
187.0372

>  <Purity>
95

>  <PO>
5A-64168

>  <MW_salt>
0

>  <Stereochem.data>
Achiral

>  <Geometric.isomer>
None

>  <Chemical name>
5-bromo-6-methylpyridin-2-amine

>  <ClogP>
1,803

>  <logS>
-1,92

>  <HBD>
1

>  <HBA>
2

>  <TPSA>
38,91

>  <RotBonds>
0

$$$$

  Mrv1925 04172511382D          

 12 12  0  0  0  0            999 V2000
    0.7145    2.0625    0.0000 C   0  0  0  0  0  0  0  0  0  0  0  0
    0.7145    1.2375    0.0000 C   0  0  0  0  0  0  0  0  0  0  0  0
    1.4289    0.8250    0.0000 C   0  0  0  0  0  0  0  0  0  0  0  0
    1.4289   -0.0000    0.0000 C   0  0  0  0  0  0  0  0  0  0  0  0
    2.1434   -0.4125    0.0000 C   0  0  0  0  0  0  0  0  0  0  0  0
    0.7145   -0.4125    0.0000 C   0  0  0  0  0  0  0  0  0  0  0  0
    0.7145   -1.2375    0.0000 N   0  0  0  0  0  0  0  0  0  0  0  0
    0.0000    0.0000    0.0000 C   0  0  0  0  0  0  0  0  0  0  0  0
    0.0000    0.8250    0.0000 C   0  0  0  0  0  0  0  0  0  0  0  0
   -0.7145   -0.4125    0.0000 C   0  0  0  0  0  0  0  0  0  0  0  0
   -1.4289    0.0000    0.0000 O   0  0  0  0  0  0  0  0  0  0  0  0
   -0.7145   -1.2375    0.0000 O   0  0  0  0  0  0  0  0  0  0  0  0
  1  2  1  0  0  0  0
  2  3  1  0  0  0  0
  3  4  2  0  0  0  0
  4  5  1  0  0  0  0
  4  6  1  0  0  0  0
  6  7  1  0  0  0  0
  6  8  2  0  0  0  0
  8  9  1  0  0  0  0
  2  9  2  0  0  0  0
  8 10  1  0  0  0  0
 10 11  2  0  0  0  0
 10 12  1  0  0  0  0
M  END
>  <Catalog ID>
Z362758732

>  <Plate_ID>
2026997-X50-03

>  <Well>
F04

>  <V, µL>
50

>  <Conc, mM>
10

>  <Formula>
C9H11NO2

>  <MW>
165.1891

>  <Purity>
98.27

>  <PO>
5A-64168

>  <MW_salt>
0

>  <Stereochem.data>
Achiral

>  <Geometric.isomer>
None

>  <Chemical name>
2-amino-3,5-dimethylbenzoic acid

>  <ClogP>
2,156

>  <logS>
-2,14

>  <HBD>
2

>  <HBA>
3

>  <TPSA>
63,32

>  <RotBonds>
1

$$$$

  Mrv1925 04172511382D          

 10 10  0  0  0  0            999 V2000
    0.0000    2.4750    0.0000 C   0  0  0  0  0  0  0  0  0  0  0  0
    0.7145    2.0625    0.0000 C   0  0  0  0  0  0  0  0  0  0  0  0
    1.4289    2.4750    0.0000 O   0  0  0  0  0  0  0  0  0  0  0  0
    0.7145    1.2375    0.0000 C   0  0  0  0  0  0  0  0  0  0  0  0
    1.4289    0.8250    0.0000 C   0  0  0  0  0  0  0  0  0  0  0  0
    1.4289   -0.0000    0.0000 C   0  0  0  0  0  0  0  0  0  0  0  0
    0.7145   -0.4125    0.0000 C   0  0  0  0  0  0  0  0  0  0  0  0
    0.0000    0.0000    0.0000 C   0  0  0  0  0  0  0  0  0  0  0  0
   -0.7145   -0.4125    0.0000 N   0  0  0  0  0  0  0  0  0  0  0  0
    0.0000    0.8250    0.0000 C   0  0  0  0  0  0  0  0  0  0  0  0
  1  2  1  0  0  0  0
  2  3  2  0  0  0  0
  2  4  1  0  0  0  0
  4  5  1  0  0  0  0
  5  6  2  0  0  0  0
  6  7  1  0  0  0  0
  7  8  2  0  0  0  0
  8  9  1  0  0  0  0
  8 10  1  0  0  0  0
  4 10  2  0  0  0  0
M  END
>  <Catalog ID>
Z57127443

>  <Plate_ID>
2026997-X50-03

>  <Well>
G04

>  <V, µL>
50

>  <Conc, mM>
10

>  <Formula>
C8H9NO

>  <MW>
135.1632

>  <Purity>
100

>  <PO>
5A-64168

>  <MW_salt>
0

>  <Stereochem.data>
Achiral

>  <Geometric.isomer>
None

>  <Chemical name>
1-(3-aminophenyl)ethan-1-one

>  <ClogP>
0,864

>  <logS>
-1,57

>  <HBD>
1

>  <HBA>
2

>  <TPSA>
43,09

>  <RotBonds>
1

$$$$

  Mrv1925 04172511382D          

  8  8  0  0  0  0            999 V2000
    0.7145    2.0625    0.0000 C   0  0  0  0  0  0  0  0  0  0  0  0
    0.7145    1.2375    0.0000 C   0  0  0  0  0  0  0  0  0  0  0  0
    1.4289    0.8250    0.0000 C   0  0  0  0  0  0  0  0  0  0  0  0
    1.4289   -0.0000    0.0000 C   0  0  0  0  0  0  0  0  0  0  0  0
    0.7145   -0.4125    0.0000 C   0  0  0  0  0  0  0  0  0  0  0  0
    0.7145   -1.2375    0.0000 N   0  0  0  0  0  0  0  0  0  0  0  0
    0.0000    0.0000    0.0000 C   0  0  0  0  0  0  0  0  0  0  0  0
    0.0000    0.8250    0.0000 C   0  0  0  0  0  0  0  0  0  0  0  0
  1  2  1  0  0  0  0
  2  3  1  0  0  0  0
  3  4  2  0  0  0  0
  4  5  1  0  0  0  0
  5  6  1  0  0  0  0
  5  7  2  0  0  0  0
  7  8  1  0  0  0  0
  2  8  2  0  0  0  0
M  END
>  <Catalog ID>
Z57127875

>  <Plate_ID>
2026997-X50-03

>  <Well>
H04

>  <V, µL>
50

>  <Conc, mM>
10

>  <Formula>
C7H9N

>  <MW>
107.1531

>  <Purity>
95

>  <PO>
5A-64168

>  <MW_salt>
0

>  <Stereochem.data>
Achiral

>  <Geometric.isomer>
None

>  <Chemical name>
4-methylaniline

>  <ClogP>
1,414

>  <logS>
-1,69

>  <HBD>
1

>  <HBA>
1

>  <TPSA>
26,02

>  <RotBonds>
0

$$$$

  Mrv1925 04172511382D          

 11 12  0  0  0  0            999 V2000
    4.0668    2.3479    0.0000 C   0  0  0  0  0  0  0  0  0  0  0  0
    3.3523    1.9354    0.0000 N   0  0  0  0  0  0  0  0  0  0  0  0
    3.3523    1.1104    0.0000 C   0  0  0  0  0  0  0  0  0  0  0  0
    2.6378    0.6979    0.0000 C   0  0  0  0  0  0  0  0  0  0  0  0
    1.9233    1.1104    0.0000 C   0  0  0  0  0  0  0  0  0  0  0  0
    1.1387    0.8555    0.0000 C   0  0  0  0  0  0  0  0  0  0  0  0
    0.6538    1.5229    0.0000 C   0  0  0  0  0  0  0  0  0  0  0  0
    1.1387    2.1904    0.0000 N   0  0  0  0  0  0  0  0  0  0  0  0
    1.9233    1.9354    0.0000 C   0  0  0  0  0  0  0  0  0  0  0  0
    2.6378    2.3479    0.0000 C   0  0  0  0  0  0  0  0  0  0  0  0
    2.6378    3.1729    0.0000 O   0  0  0  0  0  0  0  0  0  0  0  0
  1  2  1  0  0  0  0
  2  3  1  0  0  0  0
  3  4  2  0  0  0  0
  4  5  1  0  0  0  0
  5  6  1  0  0  0  0
  6  7  2  0  0  0  0
  7  8  1  0  0  0  0
  8  9  1  0  0  0  0
  5  9  2  0  0  0  0
  9 10  1  0  0  0  0
  2 10  1  0  0  0  0
 10 11  2  0  0  0  0
M  END
>  <Catalog ID>
Z1203734446

>  <Plate_ID>
2026997-X50-03

>  <Well>
A05

>  <V, µL>
50

>  <Conc, mM>
10

>  <Formula>
C8H8N2O

>  <MW>
148.1619

>  <Purity>
100

>  <PO>
5A-64168

>  <MW_salt>
0

>  <Stereochem.data>
Achiral

>  <Geometric.isomer>
None

>  <Chemical name>
6-methyl-1H,6H,7H-pyrrolo[2,3-c]pyridin-7-one

>  <ClogP>
0,204

>  <logS>
-0,96

>  <HBD>
1

>  <HBA>
1

>  <TPSA>
36,1

>  <RotBonds>
0

$$$$

  Mrv1925 04172511382D          

 11 12  0  0  0  0            999 V2000
   -0.4529   -0.9694    0.0000 O   0  0  0  0  0  0  0  0  0  0  0  0
   -0.0404   -0.2549    0.0000 C   0  0  0  0  0  0  0  0  0  0  0  0
   -0.4529    0.4595    0.0000 O   0  0  0  0  0  0  0  0  0  0  0  0
    0.7846   -0.2549    0.0000 C   0  0  0  0  0  0  0  0  0  0  0  0
    1.2695    0.4125    0.0000 C   0  0  0  0  0  0  0  0  0  0  0  0
    2.0542    0.1576    0.0000 C   0  0  0  0  0  0  0  0  0  0  0  0
    2.8388    0.4125    0.0000 C   0  0  0  0  0  0  0  0  0  0  0  0
    3.3237   -0.2549    0.0000 C   0  0  0  0  0  0  0  0  0  0  0  0
    2.8388   -0.9224    0.0000 S   0  0  0  0  0  0  0  0  0  0  0  0
    2.0542   -0.6674    0.0000 C   0  0  0  0  0  0  0  0  0  0  0  0
    1.2695   -0.9224    0.0000 N   0  0  0  0  0  0  0  0  0  0  0  0
  1  2  2  0  0  0  0
  2  3  1  0  0  0  0
  2  4  1  0  0  0  0
  4  5  2  0  0  0  0
  5  6  1  0  0  0  0
  6  7  1  0  0  0  0
  7  8  2  0  0  0  0
  8  9  1  0  0  0  0
  9 10  1  0  0  0  0
  6 10  2  0  0  0  0
 10 11  1  0  0  0  0
  4 11  1  0  0  0  0
M  END
>  <Catalog ID>
Z235000792

>  <Plate_ID>
2026997-X50-03

>  <Well>
B05

>  <V, µL>
50

>  <Conc, mM>
10

>  <Formula>
C7H5NO2S

>  <MW>
167.1851

>  <Purity>
100

>  <PO>
5A-64168

>  <MW_salt>
0

>  <Stereochem.data>
Achiral

>  <Geometric.isomer>
None

>  <Chemical name>
6H-thieno[2,3-b]pyrrole-5-carboxylic acid

>  <ClogP>
1,882

>  <logS>
-2,87

>  <HBD>
2

>  <HBA>
2

>  <TPSA>
53,09

>  <RotBonds>
1

$$$$

  Mrv1925 04172511382D          

 11 11  0  0  0  0            999 V2000
    0.7145    2.0625    0.0000 N   0  0  0  0  0  0  0  0  0  0  0  0
    0.7145    1.2375    0.0000 C   0  0  0  0  0  0  0  0  0  0  0  0
    1.4289    0.8250    0.0000 C   0  0  0  0  0  0  0  0  0  0  0  0
    2.1434    1.2375    0.0000 F   0  0  0  0  0  0  0  0  0  0  0  0
    1.4289   -0.0000    0.0000 C   0  0  0  0  0  0  0  0  0  0  0  0
    0.7145   -0.4125    0.0000 C   0  0  0  0  0  0  0  0  0  0  0  0
    0.0000    0.0000    0.0000 C   0  0  0  0  0  0  0  0  0  0  0  0
    0.0000    0.8250    0.0000 C   0  0  0  0  0  0  0  0  0  0  0  0
   -0.7145    1.2375    0.0000 C   0  0  0  0  0  0  0  0  0  0  0  0
   -1.4289    0.8250    0.0000 O   0  0  0  0  0  0  0  0  0  0  0  0
   -0.7145    2.0625    0.0000 O   0  0  0  0  0  0  0  0  0  0  0  0
  1  2  1  0  0  0  0
  2  3  1  0  0  0  0
  3  4  1  0  0  0  0
  3  5  2  0  0  0  0
  5  6  1  0  0  0  0
  6  7  2  0  0  0  0
  7  8  1  0  0  0  0
  2  8  2  0  0  0  0
  8  9  1  0  0  0  0
  9 10  2  0  0  0  0
  9 11  1  0  0  0  0
M  END
>  <Catalog ID>
Z362758748

>  <Plate_ID>
2026997-X50-03

>  <Well>
C05

>  <V, µL>
50

>  <Conc, mM>
10

>  <Formula>
C7H6FNO2

>  <MW>
155.1264

>  <Purity>
100

>  <PO>
5A-64168

>  <MW_salt>
0

>  <Stereochem.data>
Achiral

>  <Geometric.isomer>
None

>  <Chemical name>
2-amino-3-fluorobenzoic acid

>  <ClogP>
1,398

>  <logS>
-1,63

>  <HBD>
2

>  <HBA>
3

>  <TPSA>
63,32

>  <RotBonds>
1

$$$$

  Mrv1925 04172511382D          

 10 10  0  0  0  0            999 V2000
    0.7145    2.0625    0.0000 N   0  0  0  0  0  0  0  0  0  0  0  0
    0.7145    1.2375    0.0000 C   0  0  0  0  0  0  0  0  0  0  0  0
    1.4289    0.8250    0.0000 C   0  0  0  0  0  0  0  0  0  0  0  0
    1.4289   -0.0000    0.0000 C   0  0  0  0  0  0  0  0  0  0  0  0
    0.7145   -0.4125    0.0000 C   0  0  0  0  0  0  0  0  0  0  0  0
    0.0000    0.0000    0.0000 C   0  0  0  0  0  0  0  0  0  0  0  0
    0.0000    0.8250    0.0000 C   0  0  0  0  0  0  0  0  0  0  0  0
    0.7145   -1.2375    0.0000 C   0  0  0  0  0  0  0  0  0  0  0  0
    1.4289   -1.6500    0.0000 O   0  0  0  0  0  0  0  0  0  0  0  0
   -0.0000   -1.6500    0.0000 O   0  0  0  0  0  0  0  0  0  0  0  0
  1  2  1  0  0  0  0
  2  3  1  0  0  0  0
  3  4  2  0  0  0  0
  4  5  1  0  0  0  0
  5  6  2  0  0  0  0
  6  7  1  0  0  0  0
  2  7  2  0  0  0  0
  5  8  1  0  0  0  0
  8  9  2  0  0  0  0
  8 10  1  0  0  0  0
M  END
>  <Catalog ID>
Z57127446

>  <Plate_ID>
2026997-X50-03

>  <Well>
D05

>  <V, µL>
50

>  <Conc, mM>
10

>  <Formula>
C7H7NO2

>  <MW>
137.136

>  <Purity>
95

>  <PO>
5A-64168

>  <MW_salt>
0

>  <Stereochem.data>
Achiral

>  <Geometric.isomer>
None

>  <Chemical name>
4-aminobenzoic acid

>  <ClogP>
0,978

>  <logS>
-1,34

>  <HBD>
2

>  <HBA>
3

>  <TPSA>
63,32

>  <RotBonds>
1

$$$$

  Mrv1925 04172511382D          

 10 10  0  0  0  0            999 V2000
    0.0000    2.4750    0.0000 N   0  0  0  0  0  0  0  0  0  0  0  0
    0.7145    2.0625    0.0000 C   0  0  0  0  0  0  0  0  0  0  0  0
    1.4289    2.4750    0.0000 O   0  0  0  0  0  0  0  0  0  0  0  0
    0.7145    1.2375    0.0000 C   0  0  0  0  0  0  0  0  0  0  0  0
    1.4289    0.8250    0.0000 C   0  0  0  0  0  0  0  0  0  0  0  0
    1.4289   -0.0000    0.0000 C   0  0  0  0  0  0  0  0  0  0  0  0
    0.7145   -0.4125    0.0000 C   0  0  0  0  0  0  0  0  0  0  0  0
    0.0000    0.0000    0.0000 C   0  0  0  0  0  0  0  0  0  0  0  0
   -0.7145   -0.4125    0.0000 Cl  0  0  0  0  0  0  0  0  0  0  0  0
    0.0000    0.8250    0.0000 C   0  0  0  0  0  0  0  0  0  0  0  0
  1  2  1  0  0  0  0
  2  3  2  0  0  0  0
  2  4  1  0  0  0  0
  4  5  1  0  0  0  0
  5  6  2  0  0  0  0
  6  7  1  0  0  0  0
  7  8  2  0  0  0  0
  8  9  1  0  0  0  0
  8 10  1  0  0  0  0
  4 10  2  0  0  0  0
M  END
>  <Catalog ID>
Z33546479

>  <Plate_ID>
2026997-X50-03

>  <Well>
E05

>  <V, µL>
50

>  <Conc, mM>
10

>  <Formula>
C7H6ClNO

>  <MW>
155.5816

>  <Purity>
100

>  <PO>
5A-64168

>  <MW_salt>
0

>  <Stereochem.data>
Achiral

>  <Geometric.isomer>
None

>  <Chemical name>
3-chlorobenzamide

>  <ClogP>
1,536

>  <logS>
-2,34

>  <HBD>
1

>  <HBA>
1

>  <TPSA>
43,09

>  <RotBonds>
1

$$$$

  Mrv1925 04172511382D          

  9  9  0  0  0  0            999 V2000
    0.0000    2.4750    0.0000 O   0  0  0  0  0  0  0  0  0  0  0  0
    0.7145    2.0625    0.0000 C   0  0  0  0  0  0  0  0  0  0  0  0
    0.7145    1.2375    0.0000 C   0  0  0  0  0  0  0  0  0  0  0  0
    1.4289    0.8250    0.0000 C   0  0  0  0  0  0  0  0  0  0  0  0
    1.4289   -0.0000    0.0000 C   0  0  0  0  0  0  0  0  0  0  0  0
    0.7145   -0.4125    0.0000 C   0  0  0  0  0  0  0  0  0  0  0  0
    0.7145   -1.2375    0.0000 Br  0  0  0  0  0  0  0  0  0  0  0  0
    0.0000    0.0000    0.0000 C   0  0  0  0  0  0  0  0  0  0  0  0
    0.0000    0.8250    0.0000 C   0  0  0  0  0  0  0  0  0  0  0  0
  1  2  1  0  0  0  0
  2  3  1  0  0  0  0
  3  4  1  0  0  0  0
  4  5  2  0  0  0  0
  5  6  1  0  0  0  0
  6  7  1  0  0  0  0
  6  8  2  0  0  0  0
  8  9  1  0  0  0  0
  3  9  2  0  0  0  0
M  END
>  <Catalog ID>
Z335244742

>  <Plate_ID>
2026997-X50-03

>  <Well>
F05

>  <V, µL>
50

>  <Conc, mM>
10

>  <Formula>
C7H7BrO

>  <MW>
187.0339

>  <Purity>
100

>  <PO>
5A-64168

>  <MW_salt>
0

>  <Stereochem.data>
Achiral

>  <Geometric.isomer>
None

>  <Chemical name>
(4-bromophenyl)methanol

>  <ClogP>
1,967

>  <logS>
-2,07

>  <HBD>
1

>  <HBA>
1

>  <TPSA>
20,23

>  <RotBonds>
1

$$$$

  Mrv1925 04172511382D          

 15 16  0  0  0  0            999 V2000
    2.1434   -3.7125    0.0000 O   0  0  0  0  0  0  0  0  0  0  0  0
    2.1434   -2.8875    0.0000 C   0  0  0  0  0  0  0  0  0  0  0  0
    2.8579   -2.4750    0.0000 O   0  0  0  0  0  0  0  0  0  0  0  0
    1.4289   -2.4750    0.0000 C   0  0  0  0  0  0  0  0  0  0  0  0
    1.4289   -1.6500    0.0000 C   0  0  0  0  0  0  0  0  0  0  0  0
    0.7145   -1.2375    0.0000 N   0  0  0  0  0  0  0  0  0  0  0  0
    0.7145   -0.4125    0.0000 N   0  0  0  0  0  0  0  0  0  0  0  0
    1.4289    0.0000    0.0000 C   0  0  0  0  0  0  0  0  0  0  0  0
    1.4289    0.8250    0.0000 O   0  0  0  0  0  0  0  0  0  0  0  0
    2.1434   -0.4125    0.0000 C   0  0  0  0  0  0  0  0  0  0  0  0
    2.8579    0.0000    0.0000 C   0  0  0  0  0  0  0  0  0  0  0  0
    3.5724   -0.4125    0.0000 C   0  0  0  0  0  0  0  0  0  0  0  0
    3.5724   -1.2375    0.0000 C   0  0  0  0  0  0  0  0  0  0  0  0
    2.8579   -1.6500    0.0000 C   0  0  0  0  0  0  0  0  0  0  0  0
    2.1434   -1.2375    0.0000 C   0  0  0  0  0  0  0  0  0  0  0  0
  1  2  2  0  0  0  0
  2  3  1  0  0  0  0
  2  4  1  0  0  0  0
  4  5  1  0  0  0  0
  5  6  2  0  0  0  0
  6  7  1  0  0  0  0
  7  8  1  0  0  0  0
  8  9  2  0  0  0  0
  8 10  1  0  0  0  0
 10 11  1  0  0  0  0
 11 12  2  0  0  0  0
 12 13  1  0  0  0  0
 13 14  2  0  0  0  0
 14 15  1  0  0  0  0
  5 15  1  0  0  0  0
 10 15  2  0  0  0  0
M  END
>  <Catalog ID>
Z56871698

>  <Plate_ID>
2026997-X50-03

>  <Well>
G05

>  <V, µL>
50

>  <Conc, mM>
10

>  <Formula>
C10H8N2O3

>  <MW>
204.1821

>  <Purity>
100

>  <PO>
5A-64168

>  <MW_salt>
0

>  <Stereochem.data>
Achiral

>  <Geometric.isomer>
None

>  <Chemical name>
2-(4-oxo-3,4-dihydrophthalazin-1-yl)acetic acid

>  <ClogP>
-0,573

>  <logS>
-2,57

>  <HBD>
2

>  <HBA>
4

>  <TPSA>
78,76

>  <RotBonds>
2

$$$$

  Mrv1925 04172511382D          

 13 13  0  0  0  0            999 V2000
    1.4289    2.4750    0.0000 C   0  0  0  0  0  0  0  0  0  0  0  0
    0.7145    2.0625    0.0000 N   0  0  0  0  0  0  0  0  0  0  0  0
    0.0000    2.4750    0.0000 C   0  0  0  0  0  0  0  0  0  0  0  0
    0.7145    1.2375    0.0000 C   0  0  0  0  0  0  0  0  0  0  0  0
    1.4289    0.8250    0.0000 C   0  0  0  0  0  0  0  0  0  0  0  0
    1.4289   -0.0000    0.0000 C   0  0  0  0  0  0  0  0  0  0  0  0
    0.7145   -0.4125    0.0000 C   0  0  0  0  0  0  0  0  0  0  0  0
    0.0000    0.0000    0.0000 C   0  0  0  0  0  0  0  0  0  0  0  0
    0.0000    0.8250    0.0000 C   0  0  0  0  0  0  0  0  0  0  0  0
   -0.7145   -0.4125    0.0000 C   0  0  0  0  0  0  0  0  0  0  0  0
   -0.7145   -1.2375    0.0000 O   0  0  0  0  0  0  0  0  0  0  0  0
   -1.4289    0.0000    0.0000 N   0  0  0  0  0  0  0  0  0  0  0  0
   -2.1434   -0.4125    0.0000 N   0  0  0  0  0  0  0  0  0  0  0  0
  1  2  1  0  0  0  0
  2  3  1  0  0  0  0
  2  4  1  0  0  0  0
  4  5  1  0  0  0  0
  5  6  2  0  0  0  0
  6  7  1  0  0  0  0
  7  8  2  0  0  0  0
  8  9  1  0  0  0  0
  4  9  2  0  0  0  0
  8 10  1  0  0  0  0
 10 11  2  0  0  0  0
 10 12  1  0  0  0  0
 12 13  1  0  0  0  0
M  END
>  <Catalog ID>
Z56858159

>  <Plate_ID>
2026997-X50-03

>  <Well>
H05

>  <V, µL>
50

>  <Conc, mM>
10

>  <Formula>
C9H13N3O

>  <MW>
179.219

>  <Purity>
95

>  <PO>
5A-64168

>  <MW_salt>
0

>  <Stereochem.data>
Achiral

>  <Geometric.isomer>
None

>  <Chemical name>
3-(dimethylamino)benzohydrazide

>  <ClogP>
0,625

>  <logS>
-1,57

>  <HBD>
2

>  <HBA>
3

>  <TPSA>
58,36

>  <RotBonds>
2

$$$$

  Mrv1925 04172511382D          

 10 10  0  0  0  0            999 V2000
   -0.8612    3.5893    0.0000 O   0  0  0  0  0  0  0  0  0  0  0  0
   -0.1467    3.1768    0.0000 C   0  0  0  0  0  0  0  0  0  0  0  0
    0.5678    3.5893    0.0000 O   0  0  0  0  0  0  0  0  0  0  0  0
   -0.1467    2.3518    0.0000 C   0  0  0  0  0  0  0  0  0  0  0  0
    0.5678    1.9393    0.0000 C   0  0  0  0  0  0  0  0  0  0  0  0
    0.5678    1.1143    0.0000 C   0  0  0  0  0  0  0  0  0  0  0  0
    1.2352    0.6294    0.0000 C   0  0  0  0  0  0  0  0  0  0  0  0
    0.9803   -0.1553    0.0000 C   0  0  0  0  0  0  0  0  0  0  0  0
    0.1553   -0.1553    0.0000 C   0  0  0  0  0  0  0  0  0  0  0  0
   -0.0997    0.6294    0.0000 C   0  0  0  0  0  0  0  0  0  0  0  0
  1  2  2  0  0  0  0
  2  3  1  0  0  0  0
  2  4  1  0  0  0  0
  4  5  1  0  0  0  0
  5  6  1  0  0  0  0
  6  7  1  0  0  0  0
  7  8  1  0  0  0  0
  8  9  1  0  0  0  0
  9 10  1  0  0  0  0
  6 10  1  0  0  0  0
M  END
>  <Catalog ID>
Z104478044

>  <Plate_ID>
2026997-X50-03

>  <Well>
A06

>  <V, µL>
50

>  <Conc, mM>
10

>  <Formula>
C8H14O2

>  <MW>
142.1956

>  <Purity>
100

>  <PO>
5A-64168

>  <MW_salt>
0

>  <Stereochem.data>
Achiral

>  <Geometric.isomer>
None

>  <Chemical name>
3-cyclopentylpropanoic acid

>  <ClogP>
2,426

>  <logS>
-2,27

>  <HBD>
1

>  <HBA>
2

>  <TPSA>
37,3

>  <RotBonds>
3

$$$$

  Mrv1925 04172511382D          

  9  9  0  0  0  0            999 V2000
    0.7145    2.0625    0.0000 C   0  0  0  0  0  0  0  0  0  0  0  0
    0.7145    1.2375    0.0000 C   0  0  0  0  0  0  0  0  0  0  0  0
    1.4289    0.8250    0.0000 N   0  0  0  0  0  0  0  0  0  0  0  0
    1.4289   -0.0000    0.0000 C   0  0  0  0  0  0  0  0  0  0  0  0
    0.7145   -0.4125    0.0000 C   0  0  0  0  0  0  0  0  0  0  0  0
    0.7145   -1.2375    0.0000 C   0  0  0  0  0  0  0  0  0  0  0  0
    0.0000    0.0000    0.0000 C   0  0  0  0  0  0  0  0  0  0  0  0
   -0.7145   -0.4125    0.0000 N   0  0  0  0  0  0  0  0  0  0  0  0
    0.0000    0.8250    0.0000 N   0  0  0  0  0  0  0  0  0  0  0  0
  1  2  1  0  0  0  0
  2  3  1  0  0  0  0
  3  4  2  0  0  0  0
  4  5  1  0  0  0  0
  5  6  1  0  0  0  0
  5  7  2  0  0  0  0
  7  8  1  0  0  0  0
  7  9  1  0  0  0  0
  2  9  2  0  0  0  0
M  END
>  <Catalog ID>
Z1198261676

>  <Plate_ID>
2026997-X50-03

>  <Well>
B06

>  <V, µL>
50

>  <Conc, mM>
10

>  <Formula>
C6H9N3

>  <MW>
123.1558

>  <Purity>
98

>  <PO>
5A-64168

>  <MW_salt>
0

>  <Stereochem.data>
Achiral

>  <Geometric.isomer>
None

>  <Chemical name>
2,5-dimethylpyrimidin-4-amine

>  <ClogP>
0,624

>  <logS>
-0,49

>  <HBD>
1

>  <HBA>
3

>  <TPSA>
51,8

>  <RotBonds>
0

$$$$

  Mrv1925 04172511382D          

 18 20  0  0  0  0            999 V2000
    0.8838   -2.1500    0.0000 O   0  0  0  0  0  0  0  0  0  0  0  0
    1.1387   -1.3654    0.0000 C   0  0  0  0  0  0  0  0  0  0  0  0
    0.6538   -0.6979    0.0000 C   0  0  0  0  0  0  0  0  0  0  0  0
   -0.1712   -0.6979    0.0000 O   0  0  0  0  0  0  0  0  0  0  0  0
    1.1387   -0.0305    0.0000 N   0  0  0  0  0  0  0  0  0  0  0  0
    0.8838    0.7541    0.0000 C   0  0  0  0  0  0  0  0  0  0  0  0
    0.0768    0.9256    0.0000 C   0  0  0  0  0  0  0  0  0  0  0  0
   -0.4752    0.3126    0.0000 C   0  0  0  0  0  0  0  0  0  0  0  0
   -1.2822    0.4841    0.0000 C   0  0  0  0  0  0  0  0  0  0  0  0
   -1.5371    1.2687    0.0000 C   0  0  0  0  0  0  0  0  0  0  0  0
   -0.9851    1.8818    0.0000 C   0  0  0  0  0  0  0  0  0  0  0  0
   -0.1781    1.7103    0.0000 C   0  0  0  0  0  0  0  0  0  0  0  0
    1.9233   -0.2854    0.0000 C   0  0  0  0  0  0  0  0  0  0  0  0
    2.6378    0.1271    0.0000 C   0  0  0  0  0  0  0  0  0  0  0  0
    3.3523   -0.2854    0.0000 C   0  0  0  0  0  0  0  0  0  0  0  0
    3.3523   -1.1104    0.0000 C   0  0  0  0  0  0  0  0  0  0  0  0
    2.6378   -1.5229    0.0000 C   0  0  0  0  0  0  0  0  0  0  0  0
    1.9233   -1.1104    0.0000 C   0  0  0  0  0  0  0  0  0  0  0  0
  1  2  2  0  0  0  0
  2  3  1  0  0  0  0
  3  4  2  0  0  0  0
  3  5  1  0  0  0  0
  5  6  1  0  0  0  0
  6  7  1  0  0  0  0
  7  8  1  0  0  0  0
  8  9  2  0  0  0  0
  9 10  1  0  0  0  0
 10 11  2  0  0  0  0
 11 12  1  0  0  0  0
  7 12  2  0  0  0  0
  5 13  1  0  0  0  0
 13 14  1  0  0  0  0
 14 15  2  0  0  0  0
 15 16  1  0  0  0  0
 16 17  2  0  0  0  0
 17 18  1  0  0  0  0
  2 18  1  0  0  0  0
 13 18  2  0  0  0  0
M  END
>  <Catalog ID>
Z56862402

>  <Plate_ID>
2026997-X50-03

>  <Well>
C06

>  <V, µL>
50

>  <Conc, mM>
10

>  <Formula>
C15H11NO2

>  <MW>
237.2533

>  <Purity>
95.12

>  <PO>
5A-64168

>  <MW_salt>
0

>  <Stereochem.data>
Achiral

>  <Geometric.isomer>
None

>  <Chemical name>
1-benzyl-2,3-dihydro-1H-indole-2,3-dione

>  <ClogP>
2,332

>  <logS>
-4,29

>  <HBD>
0

>  <HBA>
2

>  <TPSA>
37,38

>  <RotBonds>
2

$$$$

  Mrv1925 04172511382D          

 11 11  0  0  0  0            999 V2000
    0.5678    1.9393    0.0000 C   0  0  0  0  0  0  0  0  0  0  0  0
    0.5678    1.1143    0.0000 C   0  0  0  0  0  0  0  0  0  0  0  0
    1.2352    0.6294    0.0000 N   0  0  0  0  0  0  0  0  0  0  0  0
    0.9803   -0.1553    0.0000 N   0  0  0  0  0  0  0  0  0  0  0  0
    1.4652   -0.8227    0.0000 C   0  0  0  0  0  0  0  0  0  0  0  0
    0.1553   -0.1553    0.0000 C   0  0  0  0  0  0  0  0  0  0  0  0
   -0.3297   -0.8227    0.0000 C   0  0  0  0  0  0  0  0  0  0  0  0
   -0.0997    0.6294    0.0000 C   0  0  0  0  0  0  0  0  0  0  0  0
   -0.8843    0.8843    0.0000 C   0  0  0  0  0  0  0  0  0  0  0  0
   -1.0558    1.6913    0.0000 C   0  0  0  0  0  0  0  0  0  0  0  0
   -1.8405    1.9462    0.0000 O   0  0  0  0  0  0  0  0  0  0  0  0
  1  2  1  0  0  0  0
  2  3  2  0  0  0  0
  3  4  1  0  0  0  0
  4  5  1  0  0  0  0
  4  6  1  0  0  0  0
  6  7  1  0  0  0  0
  6  8  2  0  0  0  0
  2  8  1  0  0  0  0
  8  9  1  0  0  0  0
  9 10  1  0  0  0  0
 10 11  1  0  0  0  0
M  END
>  <Catalog ID>
Z1198175704

>  <Plate_ID>
2026997-X50-03

>  <Well>
D06

>  <V, µL>
50

>  <Conc, mM>
10

>  <Formula>
C8H14N2O

>  <MW>
154.2096

>  <Purity>
100

>  <PO>
5A-64168

>  <MW_salt>
0

>  <Stereochem.data>
Achiral

>  <Geometric.isomer>
None

>  <Chemical name>
2-(1,3,5-trimethyl-1H-pyrazol-4-yl)ethan-1-ol

>  <ClogP>
-0,344

>  <logS>
0,61

>  <HBD>
1

>  <HBA>
2

>  <TPSA>
38,05

>  <RotBonds>
2

$$$$

  Mrv1925 04172511382D          

 14 15  0  0  0  0            999 V2000
   -0.9851   -3.2777    0.0000 N   0  0  0  0  0  0  0  0  0  0  0  0
   -0.1781   -3.1062    0.0000 C   0  0  0  0  0  0  0  0  0  0  0  0
    0.3739   -3.7192    0.0000 O   0  0  0  0  0  0  0  0  0  0  0  0
    0.0768   -2.3215    0.0000 C   0  0  0  0  0  0  0  0  0  0  0  0
    0.8838   -2.1500    0.0000 C   0  0  0  0  0  0  0  0  0  0  0  0
    1.1387   -1.3654    0.0000 N   0  0  0  0  0  0  0  0  0  0  0  0
    0.6538   -0.6979    0.0000 C   0  0  0  0  0  0  0  0  0  0  0  0
    1.1387   -0.0305    0.0000 N   0  0  0  0  0  0  0  0  0  0  0  0
    1.9233   -0.2854    0.0000 C   0  0  0  0  0  0  0  0  0  0  0  0
    2.6378    0.1271    0.0000 C   0  0  0  0  0  0  0  0  0  0  0  0
    3.3523   -0.2854    0.0000 C   0  0  0  0  0  0  0  0  0  0  0  0
    3.3523   -1.1104    0.0000 C   0  0  0  0  0  0  0  0  0  0  0  0
    2.6378   -1.5229    0.0000 C   0  0  0  0  0  0  0  0  0  0  0  0
    1.9233   -1.1104    0.0000 C   0  0  0  0  0  0  0  0  0  0  0  0
  1  2  1  0  0  0  0
  2  3  2  0  0  0  0
  2  4  1  0  0  0  0
  4  5  1  0  0  0  0
  5  6  1  0  0  0  0
  6  7  1  0  0  0  0
  7  8  2  0  0  0  0
  8  9  1  0  0  0  0
  9 10  2  0  0  0  0
 10 11  1  0  0  0  0
 11 12  2  0  0  0  0
 12 13  1  0  0  0  0
 13 14  2  0  0  0  0
  9 14  1  0  0  0  0
  6 14  1  0  0  0  0
M  END
>  <Catalog ID>
Z53116464

>  <Plate_ID>
2026997-X50-03

>  <Well>
E06

>  <V, µL>
50

>  <Conc, mM>
10

>  <Formula>
C10H11N3O

>  <MW>
189.2138

>  <Purity>
100

>  <PO>
5A-64168

>  <MW_salt>
0

>  <Stereochem.data>
Achiral

>  <Geometric.isomer>
None

>  <Chemical name>
3-(1H-1,3-benzodiazol-1-yl)propanamide

>  <ClogP>
0,481

>  <logS>
-1,42

>  <HBD>
1

>  <HBA>
2

>  <TPSA>
60,91

>  <RotBonds>
3

$$$$

  Mrv1925 04172511382D          

 13 14  0  0  0  0            999 V2000
   -0.5837   -1.4124    0.0000 O   0  0  0  0  0  0  0  0  0  0  0  0
   -0.1712   -0.6979    0.0000 C   0  0  0  0  0  0  0  0  0  0  0  0
   -0.5837    0.0165    0.0000 O   0  0  0  0  0  0  0  0  0  0  0  0
    0.6538   -0.6979    0.0000 C   0  0  0  0  0  0  0  0  0  0  0  0
    1.1387   -0.0305    0.0000 C   0  0  0  0  0  0  0  0  0  0  0  0
    1.9233   -0.2854    0.0000 C   0  0  0  0  0  0  0  0  0  0  0  0
    2.6378    0.1271    0.0000 C   0  0  0  0  0  0  0  0  0  0  0  0
    3.3523   -0.2854    0.0000 C   0  0  0  0  0  0  0  0  0  0  0  0
    4.0668    0.1271    0.0000 F   0  0  0  0  0  0  0  0  0  0  0  0
    3.3523   -1.1104    0.0000 C   0  0  0  0  0  0  0  0  0  0  0  0
    2.6378   -1.5229    0.0000 C   0  0  0  0  0  0  0  0  0  0  0  0
    1.9233   -1.1104    0.0000 C   0  0  0  0  0  0  0  0  0  0  0  0
    1.1387   -1.3654    0.0000 N   0  0  0  0  0  0  0  0  0  0  0  0
  1  2  2  0  0  0  0
  2  3  1  0  0  0  0
  2  4  1  0  0  0  0
  4  5  2  0  0  0  0
  5  6  1  0  0  0  0
  6  7  2  0  0  0  0
  7  8  1  0  0  0  0
  8  9  1  0  0  0  0
  8 10  2  0  0  0  0
 10 11  1  0  0  0  0
 11 12  2  0  0  0  0
  6 12  1  0  0  0  0
 12 13  1  0  0  0  0
  4 13  1  0  0  0  0
M  END
>  <Catalog ID>
Z235348085

>  <Plate_ID>
2026997-X50-03

>  <Well>
F06

>  <V, µL>
50

>  <Conc, mM>
10

>  <Formula>
C9H6FNO2

>  <MW>
179.1478

>  <Purity>
100

>  <PO>
5A-64168

>  <MW_salt>
0

>  <Stereochem.data>
Achiral

>  <Geometric.isomer>
None

>  <Chemical name>
5-fluoro-1H-indole-2-carboxylic acid

>  <ClogP>
2,355

>  <logS>
-2,95

>  <HBD>
2

>  <HBA>
2

>  <TPSA>
53,09

>  <RotBonds>
1

$$$$

  Mrv1925 04172511382D          

 10 10  0  0  0  0            999 V2000
    0.0000    2.4750    0.0000 C   0  0  0  0  0  0  0  0  0  0  0  0
    0.7145    2.0625    0.0000 C   0  0  0  0  0  0  0  0  0  0  0  0
    1.4289    2.4750    0.0000 O   0  0  0  0  0  0  0  0  0  0  0  0
    0.7145    1.2375    0.0000 C   0  0  0  0  0  0  0  0  0  0  0  0
    1.4289    0.8250    0.0000 C   0  0  0  0  0  0  0  0  0  0  0  0
    1.4289   -0.0000    0.0000 C   0  0  0  0  0  0  0  0  0  0  0  0
    0.7145   -0.4125    0.0000 C   0  0  0  0  0  0  0  0  0  0  0  0
    0.7145   -1.2375    0.0000 Br  0  0  0  0  0  0  0  0  0  0  0  0
    0.0000    0.0000    0.0000 C   0  0  0  0  0  0  0  0  0  0  0  0
    0.0000    0.8250    0.0000 C   0  0  0  0  0  0  0  0  0  0  0  0
  1  2  1  0  0  0  0
  2  3  2  0  0  0  0
  2  4  1  0  0  0  0
  4  5  1  0  0  0  0
  5  6  2  0  0  0  0
  6  7  1  0  0  0  0
  7  8  1  0  0  0  0
  7  9  2  0  0  0  0
  9 10  1  0  0  0  0
  4 10  2  0  0  0  0
M  END
>  <Catalog ID>
Z57127459

>  <Plate_ID>
2026997-X50-03

>  <Well>
G06

>  <V, µL>
50

>  <Conc, mM>
10

>  <Formula>
C8H7BrO

>  <MW>
199.0446

>  <Purity>
100

>  <PO>
5A-64168

>  <MW_salt>
0

>  <Stereochem.data>
Achiral

>  <Geometric.isomer>
None

>  <Chemical name>
1-(4-bromophenyl)ethan-1-one

>  <ClogP>
2,52

>  <logS>
-2,89

>  <HBD>
0

>  <HBA>
1

>  <TPSA>
17,07

>  <RotBonds>
1

$$$$

  Mrv1925 04172511382D          

 10 10  0  0  0  0            999 V2000
    0.0000    3.3000    0.0000 O   0  0  0  0  0  0  0  0  0  0  0  0
    0.0000    2.4750    0.0000 C   0  0  0  0  0  0  0  0  0  0  0  0
    0.7145    2.0625    0.0000 C   0  0  0  0  0  0  0  0  0  0  0  0
    0.7145    1.2375    0.0000 C   0  0  0  0  0  0  0  0  0  0  0  0
    1.4289    0.8250    0.0000 C   0  0  0  0  0  0  0  0  0  0  0  0
    1.4289   -0.0000    0.0000 C   0  0  0  0  0  0  0  0  0  0  0  0
    0.7145   -0.4125    0.0000 C   0  0  0  0  0  0  0  0  0  0  0  0
    0.7145   -1.2375    0.0000 F   0  0  0  0  0  0  0  0  0  0  0  0
    0.0000    0.0000    0.0000 C   0  0  0  0  0  0  0  0  0  0  0  0
    0.0000    0.8250    0.0000 C   0  0  0  0  0  0  0  0  0  0  0  0
  1  2  1  0  0  0  0
  2  3  1  0  0  0  0
  3  4  1  0  0  0  0
  4  5  1  0  0  0  0
  5  6  2  0  0  0  0
  6  7  1  0  0  0  0
  7  8  1  0  0  0  0
  7  9  2  0  0  0  0
  9 10  1  0  0  0  0
  4 10  2  0  0  0  0
M  END
>  <Catalog ID>
Z397587326

>  <Plate_ID>
2026997-X50-03

>  <Well>
H06

>  <V, µL>
50

>  <Conc, mM>
10

>  <Formula>
C8H9FO

>  <MW>
140.1549

>  <Purity>
100

>  <PO>
5A-64168

>  <MW_salt>
0

>  <Stereochem.data>
Achiral

>  <Geometric.isomer>
None

>  <Chemical name>
2-(4-fluorophenyl)ethan-1-ol

>  <ClogP>
1,476

>  <logS>
-1,27

>  <HBD>
1

>  <HBA>
1

>  <TPSA>
20,23

>  <RotBonds>
2

$$$$

  Mrv1925 04172511382D          

  9  9  0  0  0  0            999 V2000
    0.5678    1.9393    0.0000 C   0  0  0  0  0  0  0  0  0  0  0  0
    0.5678    1.1143    0.0000 C   0  0  0  0  0  0  0  0  0  0  0  0
    1.2352    0.6294    0.0000 C   0  0  0  0  0  0  0  0  0  0  0  0
    0.9803   -0.1553    0.0000 C   0  0  0  0  0  0  0  0  0  0  0  0
    0.1553   -0.1553    0.0000 C   0  0  0  0  0  0  0  0  0  0  0  0
   -0.0997    0.6294    0.0000 O   0  0  0  0  0  0  0  0  0  0  0  0
   -0.3297   -0.8227    0.0000 C   0  0  0  0  0  0  0  0  0  0  0  0
    0.0059   -1.5764    0.0000 O   0  0  0  0  0  0  0  0  0  0  0  0
   -1.1501   -0.7365    0.0000 O   0  0  0  0  0  0  0  0  0  0  0  0
  1  2  1  0  0  0  0
  2  3  2  0  0  0  0
  3  4  1  0  0  0  0
  4  5  2  0  0  0  0
  5  6  1  0  0  0  0
  2  6  1  0  0  0  0
  5  7  1  0  0  0  0
  7  8  2  0  0  0  0
  7  9  1  0  0  0  0
M  END
>  <Catalog ID>
Z56895714

>  <Plate_ID>
2026997-X50-03

>  <Well>
A07

>  <V, µL>
50

>  <Conc, mM>
10

>  <Formula>
C6H6O3

>  <MW>
126.11

>  <Purity>
100

>  <PO>
5A-64168

>  <MW_salt>
0

>  <Stereochem.data>
Achiral

>  <Geometric.isomer>
None

>  <Chemical name>
5-methylfuran-2-carboxylic acid

>  <ClogP>
1,56

>  <logS>
-1,06

>  <HBD>
1

>  <HBA>
2

>  <TPSA>
50,44

>  <RotBonds>
1

$$$$

  Mrv1925 04172511382D          

  9 10  0  0  0  0            999 V2000
    1.1387   -1.3654    0.0000 C   0  0  0  0  0  0  0  0  0  0  0  0
    0.6538   -0.6979    0.0000 N   0  0  0  0  0  0  0  0  0  0  0  0
    1.1387   -0.0305    0.0000 N   0  0  0  0  0  0  0  0  0  0  0  0
    1.9233   -0.2854    0.0000 C   0  0  0  0  0  0  0  0  0  0  0  0
    2.6378    0.1271    0.0000 C   0  0  0  0  0  0  0  0  0  0  0  0
    3.3523   -0.2854    0.0000 C   0  0  0  0  0  0  0  0  0  0  0  0
    3.3523   -1.1104    0.0000 C   0  0  0  0  0  0  0  0  0  0  0  0
    2.6378   -1.5229    0.0000 C   0  0  0  0  0  0  0  0  0  0  0  0
    1.9233   -1.1104    0.0000 C   0  0  0  0  0  0  0  0  0  0  0  0
  1  2  2  0  0  0  0
  2  3  1  0  0  0  0
  3  4  1  0  0  0  0
  4  5  1  0  0  0  0
  5  6  2  0  0  0  0
  6  7  1  0  0  0  0
  7  8  2  0  0  0  0
  8  9  1  0  0  0  0
  1  9  1  0  0  0  0
  4  9  2  0  0  0  0
M  END
>  <Catalog ID>
Z276614452

>  <Plate_ID>
2026997-X50-03

>  <Well>
B07

>  <V, µL>
50

>  <Conc, mM>
10

>  <Formula>
C7H6N2

>  <MW>
118.1359

>  <Purity>
100

>  <PO>
5A-64168

>  <MW_salt>
0

>  <Stereochem.data>
Achiral

>  <Geometric.isomer>
None

>  <Chemical name>
1H-indazole

>  <ClogP>
1,625

>  <logS>
-1,93

>  <HBD>
1

>  <HBA>
1

>  <TPSA>
28,68

>  <RotBonds>
0

$$$$

  Mrv1925 04172511382D          

  9  9  0  0  0  0            999 V2000
    0.0000    3.3000    0.0000 O   0  0  0  0  0  0  0  0  0  0  0  0
    0.0000    2.4750    0.0000 C   0  0  0  0  0  0  0  0  0  0  0  0
    0.7145    2.0625    0.0000 C   0  0  0  0  0  0  0  0  0  0  0  0
    0.7145    1.2375    0.0000 C   0  0  0  0  0  0  0  0  0  0  0  0
    1.4289    0.8250    0.0000 C   0  0  0  0  0  0  0  0  0  0  0  0
    1.4289   -0.0000    0.0000 C   0  0  0  0  0  0  0  0  0  0  0  0
    0.7145   -0.4125    0.0000 C   0  0  0  0  0  0  0  0  0  0  0  0
    0.0000    0.0000    0.0000 C   0  0  0  0  0  0  0  0  0  0  0  0
    0.0000    0.8250    0.0000 C   0  0  0  0  0  0  0  0  0  0  0  0
  1  2  1  0  0  0  0
  2  3  1  0  0  0  0
  3  4  1  0  0  0  0
  4  5  1  0  0  0  0
  5  6  2  0  0  0  0
  6  7  1  0  0  0  0
  7  8  2  0  0  0  0
  8  9  1  0  0  0  0
  4  9  2  0  0  0  0
M  END
>  <Catalog ID>
Z104473586

>  <Plate_ID>
2026997-X50-03

>  <Well>
C07

>  <V, µL>
50

>  <Conc, mM>
10

>  <Formula>
C8H10O

>  <MW>
122.1644

>  <Purity>
100

>  <PO>
5A-64168

>  <MW_salt>
0

>  <Stereochem.data>
Achiral

>  <Geometric.isomer>
None

>  <Chemical name>
2-phenylethan-1-ol

>  <ClogP>
1,333

>  <logS>
-0,97

>  <HBD>
1

>  <HBA>
1

>  <TPSA>
20,23

>  <RotBonds>
2

$$$$

  Mrv1925 04172511382D          

 13 13  0  0  0  0            999 V2000
    1.4289    3.3000    0.0000 O   0  0  0  0  0  0  0  0  0  0  0  0
    1.4289    2.4750    0.0000 C   0  0  0  0  0  0  0  0  0  0  0  0
    2.1434    2.0625    0.0000 O   0  0  0  0  0  0  0  0  0  0  0  0
    0.7145    2.0625    0.0000 C   0  0  0  0  0  0  0  0  0  0  0  0
    0.7145    1.2375    0.0000 C   0  0  0  0  0  0  0  0  0  0  0  0
    1.4289    0.8250    0.0000 C   0  0  0  0  0  0  0  0  0  0  0  0
    1.4289   -0.0000    0.0000 C   0  0  0  0  0  0  0  0  0  0  0  0
    0.7145   -0.4125    0.0000 C   0  0  0  0  0  0  0  0  0  0  0  0
    0.0000    0.0000    0.0000 C   0  0  0  0  0  0  0  0  0  0  0  0
    0.0000    0.8250    0.0000 C   0  0  0  0  0  0  0  0  0  0  0  0
   -0.7145    1.2375    0.0000 C   0  0  0  0  0  0  0  0  0  0  0  0
   -0.7145    2.0625    0.0000 O   0  0  0  0  0  0  0  0  0  0  0  0
   -1.4289    0.8250    0.0000 O   0  0  0  0  0  0  0  0  0  0  0  0
  1  2  2  0  0  0  0
  2  3  1  0  0  0  0
  2  4  1  0  0  0  0
  4  5  1  0  0  0  0
  5  6  1  0  0  0  0
  6  7  2  0  0  0  0
  7  8  1  0  0  0  0
  8  9  2  0  0  0  0
  9 10  1  0  0  0  0
  5 10  2  0  0  0  0
 10 11  1  0  0  0  0
 11 12  2  0  0  0  0
 11 13  1  0  0  0  0
M  END
>  <Catalog ID>
Z104474214

>  <Plate_ID>
2026997-X50-03

>  <Well>
D07

>  <V, µL>
50

>  <Conc, mM>
10

>  <Formula>
C9H8O4

>  <MW>
180.1574

>  <Purity>
97.98

>  <PO>
5A-64168

>  <MW_salt>
0

>  <Stereochem.data>
Achiral

>  <Geometric.isomer>
None

>  <Chemical name>
2-(carboxymethyl)benzoic acid

>  <ClogP>
0,857

>  <logS>
-1,2

>  <HBD>
2

>  <HBA>
4

>  <TPSA>
74,6

>  <RotBonds>
3

$$$$

  Mrv1925 04172511382D          

  9  9  0  0  0  0            999 V2000
    0.0000    2.4750    0.0000 N   0  0  0  0  0  0  0  0  0  0  0  0
    0.7145    2.0625    0.0000 C   0  0  0  0  0  0  0  0  0  0  0  0
    1.4289    2.4750    0.0000 O   0  0  0  0  0  0  0  0  0  0  0  0
    0.7145    1.2375    0.0000 C   0  0  0  0  0  0  0  0  0  0  0  0
    1.4289    0.8250    0.0000 C   0  0  0  0  0  0  0  0  0  0  0  0
    1.4289   -0.0000    0.0000 C   0  0  0  0  0  0  0  0  0  0  0  0
    0.7145   -0.4125    0.0000 C   0  0  0  0  0  0  0  0  0  0  0  0
    0.0000    0.0000    0.0000 C   0  0  0  0  0  0  0  0  0  0  0  0
    0.0000    0.8250    0.0000 C   0  0  0  0  0  0  0  0  0  0  0  0
  1  2  1  0  0  0  0
  2  3  2  0  0  0  0
  2  4  1  0  0  0  0
  4  5  1  0  0  0  0
  5  6  1  0  0  0  0
  6  7  1  0  0  0  0
  7  8  1  0  0  0  0
  8  9  1  0  0  0  0
  4  9  1  0  0  0  0
M  END
>  <Catalog ID>
Z33546516

>  <Plate_ID>
2026997-X50-03

>  <Well>
E07

>  <V, µL>
50

>  <Conc, mM>
10

>  <Formula>
C7H13NO

>  <MW>
127.1842

>  <Purity>
100

>  <PO>
5A-64168

>  <MW_salt>
0

>  <Stereochem.data>
Achiral

>  <Geometric.isomer>
None

>  <Chemical name>
cyclohexanecarboxamide

>  <ClogP>
0,917

>  <logS>
-1,84

>  <HBD>
1

>  <HBA>
1

>  <TPSA>
43,09

>  <RotBonds>
1

$$$$

  Mrv1925 04172511382D          

  9  9  0  0  0  0            999 V2000
    0.0157    1.7274    0.0000 C   0  0  0  0  0  0  0  0  0  0  0  0
    0.5678    1.1143    0.0000 C   0  0  0  0  0  0  0  0  0  0  0  0
    1.2352    0.6294    0.0000 C   0  0  0  0  0  0  0  0  0  0  0  0
    0.9803   -0.1553    0.0000 C   0  0  0  0  0  0  0  0  0  0  0  0
    0.1553   -0.1553    0.0000 C   0  0  0  0  0  0  0  0  0  0  0  0
   -0.0997    0.6294    0.0000 C   0  0  0  0  0  0  0  0  0  0  0  0
    1.1198    1.7274    0.0000 C   0  0  0  0  0  0  0  0  0  0  0  0
    0.8649    2.5120    0.0000 O   0  0  0  0  0  0  0  0  0  0  0  0
    1.9268    1.5559    0.0000 O   0  0  0  0  0  0  0  0  0  0  0  0
  1  2  1  0  0  0  0
  2  3  1  0  0  0  0
  3  4  1  0  0  0  0
  4  5  1  0  0  0  0
  5  6  1  0  0  0  0
  2  6  1  0  0  0  0
  2  7  1  0  0  0  0
  7  8  2  0  0  0  0
  7  9  1  0  0  0  0
M  END
>  <Catalog ID>
Z199537270

>  <Plate_ID>
2026997-X50-03

>  <Well>
F07

>  <V, µL>
50

>  <Conc, mM>
10

>  <Formula>
C7H12O2

>  <MW>
128.169

>  <Purity>
98

>  <PO>
5A-64168

>  <MW_salt>
0

>  <Stereochem.data>
Achiral

>  <Geometric.isomer>
None

>  <Chemical name>
1-methylcyclopentane-1-carboxylic acid

>  <ClogP>
1,797

>  <logS>
-1,44

>  <HBD>
1

>  <HBA>
2

>  <TPSA>
37,3

>  <RotBonds>
1

$$$$

  Mrv1925 04172511382D          

 10 10  0  0  0  0            999 V2000
    0.7145    2.0625    0.0000 C   0  0  0  0  0  0  0  0  0  0  0  0
    0.7145    1.2375    0.0000 C   0  0  0  0  0  0  0  0  0  0  0  0
    1.4289    0.8250    0.0000 C   0  0  0  0  0  0  0  0  0  0  0  0
    1.4289   -0.0000    0.0000 C   0  0  0  0  0  0  0  0  0  0  0  0
    0.7145   -0.4125    0.0000 C   0  0  0  0  0  0  0  0  0  0  0  0
    0.0000    0.0000    0.0000 C   0  0  0  0  0  0  0  0  0  0  0  0
    0.0000    0.8250    0.0000 N   0  0  0  0  0  0  0  0  0  0  0  0
    0.7145   -1.2375    0.0000 C   0  0  0  0  0  0  0  0  0  0  0  0
    1.4289   -1.6500    0.0000 N   0  0  0  0  0  0  0  0  0  0  0  0
   -0.0000   -1.6500    0.0000 O   0  0  0  0  0  0  0  0  0  0  0  0
  1  2  1  0  0  0  0
  2  3  1  0  0  0  0
  3  4  2  0  0  0  0
  4  5  1  0  0  0  0
  5  6  2  0  0  0  0
  6  7  1  0  0  0  0
  2  7  2  0  0  0  0
  5  8  1  0  0  0  0
  8  9  1  0  0  0  0
  8 10  2  0  0  0  0
M  END
>  <Catalog ID>
Z57493539

>  <Plate_ID>
2026997-X50-03

>  <Well>
G07

>  <V, µL>
50

>  <Conc, mM>
10

>  <Formula>
C7H8N2O

>  <MW>
136.1512

>  <Purity>
95

>  <PO>
5A-64168

>  <MW_salt>
0

>  <Stereochem.data>
Achiral

>  <Geometric.isomer>
None

>  <Chemical name>
6-methylpyridine-3-carboxamide

>  <ClogP>
0,293

>  <logS>
-0,61

>  <HBD>
1

>  <HBA>
2

>  <TPSA>
55,98

>  <RotBonds>
1

$$$$

  Mrv1925 04172511382D          

 13 13  0  0  0  0            999 V2000
    0.0000    3.3000    0.0000 C   0  0  0  0  0  0  0  0  0  0  0  0
    0.0000    2.4750    0.0000 C   0  0  0  0  0  0  0  0  0  0  0  0
   -0.7145    2.0625    0.0000 O   0  0  0  0  0  0  0  0  0  0  0  0
    0.7145    2.0625    0.0000 N   0  0  0  0  0  0  0  0  0  0  0  0
    0.7145    1.2375    0.0000 C   0  0  0  0  0  0  0  0  0  0  0  0
    1.4289    0.8250    0.0000 C   0  0  0  0  0  0  0  0  0  0  0  0
    1.4289   -0.0000    0.0000 C   0  0  0  0  0  0  0  0  0  0  0  0
    0.7145   -0.4125    0.0000 C   0  0  0  0  0  0  0  0  0  0  0  0
    0.0000    0.0000    0.0000 C   0  0  0  0  0  0  0  0  0  0  0  0
    0.0000    0.8250    0.0000 C   0  0  0  0  0  0  0  0  0  0  0  0
    0.7145   -1.2375    0.0000 C   0  0  0  0  0  0  0  0  0  0  0  0
    1.4289   -1.6500    0.0000 O   0  0  0  0  0  0  0  0  0  0  0  0
   -0.0000   -1.6500    0.0000 O   0  0  0  0  0  0  0  0  0  0  0  0
  1  2  1  0  0  0  0
  2  3  2  0  0  0  0
  2  4  1  0  0  0  0
  4  5  1  0  0  0  0
  5  6  1  0  0  0  0
  6  7  2  0  0  0  0
  7  8  1  0  0  0  0
  8  9  2  0  0  0  0
  9 10  1  0  0  0  0
  5 10  2  0  0  0  0
  8 11  1  0  0  0  0
 11 12  2  0  0  0  0
 11 13  1  0  0  0  0
M  END
>  <Catalog ID>
Z57042001

>  <Plate_ID>
2026997-X50-03

>  <Well>
H07

>  <V, µL>
50

>  <Conc, mM>
10

>  <Formula>
C9H9NO3

>  <MW>
179.1727

>  <Purity>
100

>  <PO>
5A-64168

>  <MW_salt>
0

>  <Stereochem.data>
Achiral

>  <Geometric.isomer>
None

>  <Chemical name>
4-acetamidobenzoic acid

>  <ClogP>
1,198

>  <logS>
-1,68

>  <HBD>
2

>  <HBA>
3

>  <TPSA>
66,4

>  <RotBonds>
2

$$$$

  Mrv1925 04172511382D          

  6  6  0  0  0  0            999 V2000
    0.5678    1.9393    0.0000 N   0  0  0  0  0  0  0  0  0  0  0  0
    0.5678    1.1143    0.0000 C   0  0  0  0  0  0  0  0  0  0  0  0
    1.2352    0.6294    0.0000 N   0  0  0  0  0  0  0  0  0  0  0  0
    0.9803   -0.1553    0.0000 C   0  0  0  0  0  0  0  0  0  0  0  0
    0.1553   -0.1553    0.0000 C   0  0  0  0  0  0  0  0  0  0  0  0
   -0.0997    0.6294    0.0000 S   0  0  0  0  0  0  0  0  0  0  0  0
  1  2  1  0  0  0  0
  2  3  2  0  0  0  0
  3  4  1  0  0  0  0
  4  5  2  0  0  0  0
  5  6  1  0  0  0  0
  2  6  1  0  0  0  0
M  END
>  <Catalog ID>
Z104472798

>  <Plate_ID>
2026997-X50-03

>  <Well>
A08

>  <V, µL>
50

>  <Conc, mM>
10

>  <Formula>
C3H4N2S

>  <MW>
100.1423

>  <Purity>
98

>  <PO>
5A-64168

>  <MW_salt>
0

>  <Stereochem.data>
Achiral

>  <Geometric.isomer>
None

>  <Chemical name>
1,3-thiazol-2-amine

>  <ClogP>
0,229

>  <logS>
-0,8

>  <HBD>
1

>  <HBA>
2

>  <TPSA>
38,91

>  <RotBonds>
0

$$$$

  Mrv1925 04172511382D          

 11 12  0  0  0  0            999 V2000
    4.0668    2.3479    0.0000 C   0  0  0  0  0  0  0  0  0  0  0  0
    3.3523    1.9354    0.0000 C   0  0  0  0  0  0  0  0  0  0  0  0
    3.3523    1.1104    0.0000 C   0  0  0  0  0  0  0  0  0  0  0  0
    2.6378    0.6979    0.0000 C   0  0  0  0  0  0  0  0  0  0  0  0
    1.9233    1.1104    0.0000 C   0  0  0  0  0  0  0  0  0  0  0  0
    1.1387    0.8555    0.0000 N   0  0  0  0  0  0  0  0  0  0  0  0
    0.6538    1.5229    0.0000 C   0  0  0  0  0  0  0  0  0  0  0  0
   -0.1712    1.5229    0.0000 N   0  0  0  0  0  0  0  0  0  0  0  0
    1.1387    2.1904    0.0000 S   0  0  0  0  0  0  0  0  0  0  0  0
    1.9233    1.9354    0.0000 C   0  0  0  0  0  0  0  0  0  0  0  0
    2.6378    2.3479    0.0000 C   0  0  0  0  0  0  0  0  0  0  0  0
  1  2  1  0  0  0  0
  2  3  1  0  0  0  0
  3  4  2  0  0  0  0
  4  5  1  0  0  0  0
  5  6  1  0  0  0  0
  6  7  2  0  0  0  0
  7  8  1  0  0  0  0
  7  9  1  0  0  0  0
  9 10  1  0  0  0  0
  5 10  2  0  0  0  0
 10 11  1  0  0  0  0
  2 11  2  0  0  0  0
M  END
>  <Catalog ID>
Z57069881

>  <Plate_ID>
2026997-X50-03

>  <Well>
B08

>  <V, µL>
50

>  <Conc, mM>
10

>  <Formula>
C8H8N2S

>  <MW>
164.2275

>  <Purity>
100

>  <PO>
5A-64168

>  <MW_salt>
0

>  <Stereochem.data>
Achiral

>  <Geometric.isomer>
None

>  <Chemical name>
6-methyl-1,3-benzothiazol-2-amine

>  <ClogP>
2,322

>  <logS>
-3,03

>  <HBD>
1

>  <HBA>
2

>  <TPSA>
38,91

>  <RotBonds>
0

$$$$

  Mrv1925 04172511382D          

  9 10  0  0  0  0            999 V2000
    0.6538   -0.6979    0.0000 C   0  0  0  0  0  0  0  0  0  0  0  0
    1.1387   -0.0305    0.0000 C   0  0  0  0  0  0  0  0  0  0  0  0
    1.9233   -0.2854    0.0000 C   0  0  0  0  0  0  0  0  0  0  0  0
    2.6378    0.1271    0.0000 C   0  0  0  0  0  0  0  0  0  0  0  0
    3.3523   -0.2854    0.0000 C   0  0  0  0  0  0  0  0  0  0  0  0
    3.3523   -1.1104    0.0000 C   0  0  0  0  0  0  0  0  0  0  0  0
    2.6378   -1.5229    0.0000 N   0  0  0  0  0  0  0  0  0  0  0  0
    1.9233   -1.1104    0.0000 C   0  0  0  0  0  0  0  0  0  0  0  0
    1.1387   -1.3654    0.0000 N   0  0  0  0  0  0  0  0  0  0  0  0
  1  2  2  0  0  0  0
  2  3  1  0  0  0  0
  3  4  1  0  0  0  0
  4  5  2  0  0  0  0
  5  6  1  0  0  0  0
  6  7  2  0  0  0  0
  7  8  1  0  0  0  0
  3  8  2  0  0  0  0
  8  9  1  0  0  0  0
  1  9  1  0  0  0  0
M  END
>  <Catalog ID>
Z271099378

>  <Plate_ID>
2026997-X50-03

>  <Well>
C08

>  <V, µL>
50

>  <Conc, mM>
10

>  <Formula>
C7H6N2

>  <MW>
118.1359

>  <Purity>
100

>  <PO>
5A-64168

>  <MW_salt>
0

>  <Stereochem.data>
Achiral

>  <Geometric.isomer>
None

>  <Chemical name>
1H-pyrrolo[2,3-b]pyridine

>  <ClogP>
1,175

>  <logS>
-2,05

>  <HBD>
1

>  <HBA>
1

>  <TPSA>
28,68

>  <RotBonds>
0

$$$$

  Mrv1925 04172511382D          

 10 10  0  0  0  0            999 V2000
    0.0000    2.4750    0.0000 N   0  0  0  0  0  0  0  0  0  0  0  0
    0.7145    2.0625    0.0000 C   0  0  0  0  0  0  0  0  0  0  0  0
    1.4289    2.4750    0.0000 O   0  0  0  0  0  0  0  0  0  0  0  0
    0.7145    1.2375    0.0000 C   0  0  0  0  0  0  0  0  0  0  0  0
    1.4289    0.8250    0.0000 C   0  0  0  0  0  0  0  0  0  0  0  0
    1.4289   -0.0000    0.0000 C   0  0  0  0  0  0  0  0  0  0  0  0
    0.7145   -0.4125    0.0000 C   0  0  0  0  0  0  0  0  0  0  0  0
    0.0000    0.0000    0.0000 C   0  0  0  0  0  0  0  0  0  0  0  0
    0.0000    0.8250    0.0000 C   0  0  0  0  0  0  0  0  0  0  0  0
   -0.7145    1.2375    0.0000 O   0  0  0  0  0  0  0  0  0  0  0  0
  1  2  1  0  0  0  0
  2  3  2  0  0  0  0
  2  4  1  0  0  0  0
  4  5  1  0  0  0  0
  5  6  2  0  0  0  0
  6  7  1  0  0  0  0
  7  8  2  0  0  0  0
  8  9  1  0  0  0  0
  4  9  2  0  0  0  0
  9 10  1  0  0  0  0
M  END
>  <Catalog ID>
Z68590124

>  <Plate_ID>
2026997-X50-03

>  <Well>
D08

>  <V, µL>
50

>  <Conc, mM>
10

>  <Formula>
C7H7NO2

>  <MW>
137.136

>  <Purity>
95

>  <PO>
5A-64168

>  <MW_salt>
0

>  <Stereochem.data>
Achiral

>  <Geometric.isomer>
None

>  <Chemical name>
2-hydroxybenzamide

>  <ClogP>
1,277

>  <logS>
-1,17

>  <HBD>
2

>  <HBA>
2

>  <TPSA>
63,32

>  <RotBonds>
1

$$$$

  Mrv1925 04172511382D          

 10 10  0  0  0  0            999 V2000
    0.0000    2.4750    0.0000 N   0  0  0  0  0  0  0  0  0  0  0  0
    0.7145    2.0625    0.0000 C   0  0  0  0  0  0  0  0  0  0  0  0
    1.4289    2.4750    0.0000 O   0  0  0  0  0  0  0  0  0  0  0  0
    0.7145    1.2375    0.0000 C   0  0  0  0  0  0  0  0  0  0  0  0
    1.4289    0.8250    0.0000 C   0  0  0  0  0  0  0  0  0  0  0  0
    1.4289   -0.0000    0.0000 C   0  0  0  0  0  0  0  0  0  0  0  0
    0.7145   -0.4125    0.0000 C   0  0  0  0  0  0  0  0  0  0  0  0
    0.0000    0.0000    0.0000 C   0  0  0  0  0  0  0  0  0  0  0  0
    0.0000    0.8250    0.0000 C   0  0  0  0  0  0  0  0  0  0  0  0
   -0.7145    1.2375    0.0000 N   0  0  0  0  0  0  0  0  0  0  0  0
  1  2  1  0  0  0  0
  2  3  2  0  0  0  0
  2  4  1  0  0  0  0
  4  5  1  0  0  0  0
  5  6  2  0  0  0  0
  6  7  1  0  0  0  0
  7  8  2  0  0  0  0
  8  9  1  0  0  0  0
  4  9  2  0  0  0  0
  9 10  1  0  0  0  0
M  END
>  <Catalog ID>
Z57036632

>  <Plate_ID>
2026997-X50-03

>  <Well>
E08

>  <V, µL>
50

>  <Conc, mM>
10

>  <Formula>
C7H8N2O

>  <MW>
136.1512

>  <Purity>
95

>  <PO>
5A-64168

>  <MW_salt>
0

>  <Stereochem.data>
Achiral

>  <Geometric.isomer>
None

>  <Chemical name>
2-aminobenzamide

>  <ClogP>
0,348

>  <logS>
-1,39

>  <HBD>
2

>  <HBA>
2

>  <TPSA>
69,11

>  <RotBonds>
1

$$$$

  Mrv1925 04172511382D          

 10 11  0  0  0  0            999 V2000
    0.8838   -2.1500    0.0000 N   0  0  0  0  0  0  0  0  0  0  0  0
    1.1387   -1.3654    0.0000 C   0  0  0  0  0  0  0  0  0  0  0  0
    0.6538   -0.6979    0.0000 N   0  0  0  0  0  0  0  0  0  0  0  0
    1.1387   -0.0305    0.0000 O   0  0  0  0  0  0  0  0  0  0  0  0
    1.9233   -0.2854    0.0000 C   0  0  0  0  0  0  0  0  0  0  0  0
    2.6378    0.1271    0.0000 C   0  0  0  0  0  0  0  0  0  0  0  0
    3.3523   -0.2854    0.0000 C   0  0  0  0  0  0  0  0  0  0  0  0
    3.3523   -1.1104    0.0000 C   0  0  0  0  0  0  0  0  0  0  0  0
    2.6378   -1.5229    0.0000 C   0  0  0  0  0  0  0  0  0  0  0  0
    1.9233   -1.1104    0.0000 C   0  0  0  0  0  0  0  0  0  0  0  0
  1  2  1  0  0  0  0
  2  3  2  0  0  0  0
  3  4  1  0  0  0  0
  4  5  1  0  0  0  0
  5  6  1  0  0  0  0
  6  7  2  0  0  0  0
  7  8  1  0  0  0  0
  8  9  2  0  0  0  0
  9 10  1  0  0  0  0
  2 10  1  0  0  0  0
  5 10  2  0  0  0  0
M  END
>  <Catalog ID>
Z218760918

>  <Plate_ID>
2026997-X50-03

>  <Well>
F08

>  <V, µL>
50

>  <Conc, mM>
10

>  <Formula>
C7H6N2O

>  <MW>
134.1353

>  <Purity>
95.84

>  <PO>
5A-64168

>  <MW_salt>
0

>  <Stereochem.data>
Achiral

>  <Geometric.isomer>
None

>  <Chemical name>
1,2-benzoxazol-3-amine

>  <ClogP>
1,153

>  <logS>
-1,87

>  <HBD>
1

>  <HBA>
2

>  <TPSA>
52,05

>  <RotBonds>
0

$$$$

  Mrv1925 04172511382D          

  9  9  0  0  0  0            999 V2000
    0.7145    2.8875    0.0000 N   0  0  0  0  0  0  0  0  0  0  0  0
    0.7145    2.0625    0.0000 C   0  0  0  0  0  0  0  0  0  0  0  0
    0.7145    1.2375    0.0000 C   0  0  0  0  0  0  0  0  0  0  0  0
    1.4289    0.8250    0.0000 C   0  0  0  0  0  0  0  0  0  0  0  0
    1.4289   -0.0000    0.0000 C   0  0  0  0  0  0  0  0  0  0  0  0
    0.7145   -0.4125    0.0000 C   0  0  0  0  0  0  0  0  0  0  0  0
    0.7145   -1.2375    0.0000 O   0  0  0  0  0  0  0  0  0  0  0  0
    0.0000    0.0000    0.0000 C   0  0  0  0  0  0  0  0  0  0  0  0
    0.0000    0.8250    0.0000 C   0  0  0  0  0  0  0  0  0  0  0  0
  1  2  3  0  0  0  0
  2  3  1  0  0  0  0
  3  4  1  0  0  0  0
  4  5  2  0  0  0  0
  5  6  1  0  0  0  0
  6  7  1  0  0  0  0
  6  8  2  0  0  0  0
  8  9  1  0  0  0  0
  3  9  2  0  0  0  0
M  END
>  <Catalog ID>
Z104473840

>  <Plate_ID>
2026997-X50-03

>  <Well>
G08

>  <V, µL>
50

>  <Conc, mM>
10

>  <Formula>
C7H5NO

>  <MW>
119.1207

>  <Purity>
100

>  <PO>
5A-64168

>  <MW_salt>
0

>  <Stereochem.data>
Achiral

>  <Geometric.isomer>
None

>  <Chemical name>
4-hydroxybenzonitrile

>  <ClogP>
1,597

>  <logS>
-1,27

>  <HBD>
1

>  <HBA>
2

>  <TPSA>
44,02

>  <RotBonds>
0

$$$$

  Mrv1925 04172511382D          

 12 12  0  0  0  0            999 V2000
    0.0000    3.3000    0.0000 O   0  0  0  0  0  0  0  0  0  0  0  0
    0.0000    2.4750    0.0000 C   0  0  0  0  0  0  0  0  0  0  0  0
   -0.7145    2.0625    0.0000 O   0  0  0  0  0  0  0  0  0  0  0  0
    0.7145    2.0625    0.0000 C   0  0  0  0  0  0  0  0  0  0  0  0
    0.7145    1.2375    0.0000 C   0  0  0  0  0  0  0  0  0  0  0  0
    1.4289    0.8250    0.0000 C   0  0  0  0  0  0  0  0  0  0  0  0
    1.4289   -0.0000    0.0000 C   0  0  0  0  0  0  0  0  0  0  0  0
    2.1434   -0.4125    0.0000 Cl  0  0  0  0  0  0  0  0  0  0  0  0
    0.7145   -0.4125    0.0000 C   0  0  0  0  0  0  0  0  0  0  0  0
    0.0000    0.0000    0.0000 C   0  0  0  0  0  0  0  0  0  0  0  0
   -0.7145   -0.4125    0.0000 Cl  0  0  0  0  0  0  0  0  0  0  0  0
    0.0000    0.8250    0.0000 C   0  0  0  0  0  0  0  0  0  0  0  0
  1  2  2  0  0  0  0
  2  3  1  0  0  0  0
  2  4  1  0  0  0  0
  4  5  1  0  0  0  0
  5  6  1  0  0  0  0
  6  7  2  0  0  0  0
  7  8  1  0  0  0  0
  7  9  1  0  0  0  0
  9 10  2  0  0  0  0
 10 11  1  0  0  0  0
 10 12  1  0  0  0  0
  5 12  2  0  0  0  0
M  END
>  <Catalog ID>
Z1269159102

>  <Plate_ID>
2026997-X50-03

>  <Well>
H08

>  <V, µL>
50

>  <Conc, mM>
10

>  <Formula>
C8H6Cl2O2

>  <MW>
205.038

>  <Purity>
95

>  <PO>
5A-64168

>  <MW_salt>
0

>  <Stereochem.data>
Achiral

>  <Geometric.isomer>
None

>  <Chemical name>
2-(3,5-dichlorophenyl)acetic acid

>  <ClogP>
2,84

>  <logS>
-2,579

>  <HBD>
1

>  <HBA>
2

>  <TPSA>
37,3

>  <RotBonds>
2

$$$$

  Mrv1925 04172511382D          

 14 15  0  0  0  0            999 V2000
    2.1434   -0.4125    0.0000 N   0  0  0  0  0  0  0  0  0  0  0  0
    2.1434   -1.2375    0.0000 C   0  0  0  0  0  0  0  0  0  0  0  0
    2.8579   -1.6500    0.0000 C   0  0  0  0  0  0  0  0  0  0  0  0
    2.8579   -2.4750    0.0000 C   0  0  0  0  0  0  0  0  0  0  0  0
    2.1434   -2.8875    0.0000 C   0  0  0  0  0  0  0  0  0  0  0  0
    1.4289   -2.4750    0.0000 C   0  0  0  0  0  0  0  0  0  0  0  0
    1.4289   -1.6500    0.0000 C   0  0  0  0  0  0  0  0  0  0  0  0
    0.7145   -2.8875    0.0000 O   0  0  0  0  0  0  0  0  0  0  0  0
    0.0000   -2.4750    0.0000 C   0  0  0  0  0  0  0  0  0  0  0  0
   -0.7145   -2.8875    0.0000 C   0  0  0  0  0  0  0  0  0  0  0  0
   -1.4289   -2.4750    0.0000 C   0  0  0  0  0  0  0  0  0  0  0  0
   -1.4289   -1.6500    0.0000 C   0  0  0  0  0  0  0  0  0  0  0  0
   -0.7145   -1.2375    0.0000 C   0  0  0  0  0  0  0  0  0  0  0  0
    0.0000   -1.6500    0.0000 N   0  0  0  0  0  0  0  0  0  0  0  0
  1  2  1  0  0  0  0
  2  3  1  0  0  0  0
  3  4  2  0  0  0  0
  4  5  1  0  0  0  0
  5  6  2  0  0  0  0
  6  7  1  0  0  0  0
  2  7  2  0  0  0  0
  6  8  1  0  0  0  0
  8  9  1  0  0  0  0
  9 10  1  0  0  0  0
 10 11  2  0  0  0  0
 11 12  1  0  0  0  0
 12 13  2  0  0  0  0
 13 14  1  0  0  0  0
  9 14  2  0  0  0  0
M  END
>  <Catalog ID>
Z404012058

>  <Plate_ID>
2026997-X50-03

>  <Well>
A09

>  <V, µL>
50

>  <Conc, mM>
10

>  <Formula>
C11H10N2O

>  <MW>
186.2099

>  <Purity>
100

>  <PO>
5A-64168

>  <MW_salt>
0

>  <Stereochem.data>
Achiral

>  <Geometric.isomer>
None

>  <Chemical name>
3-(pyridin-2-yloxy)aniline

>  <ClogP>
1,516

>  <logS>
-2,61

>  <HBD>
1

>  <HBA>
2

>  <TPSA>
48,14

>  <RotBonds>
2

$$$$

  Mrv1925 04172511382D          

 12 13  0  0  0  0            999 V2000
   -0.5837   -1.4124    0.0000 O   0  0  0  0  0  0  0  0  0  0  0  0
   -0.1712   -0.6979    0.0000 C   0  0  0  0  0  0  0  0  0  0  0  0
   -0.5837    0.0165    0.0000 O   0  0  0  0  0  0  0  0  0  0  0  0
    0.6538   -0.6979    0.0000 C   0  0  0  0  0  0  0  0  0  0  0  0
    1.1387   -0.0305    0.0000 C   0  0  0  0  0  0  0  0  0  0  0  0
    1.9233   -0.2854    0.0000 C   0  0  0  0  0  0  0  0  0  0  0  0
    2.6378    0.1271    0.0000 C   0  0  0  0  0  0  0  0  0  0  0  0
    3.3523   -0.2854    0.0000 C   0  0  0  0  0  0  0  0  0  0  0  0
    3.3523   -1.1104    0.0000 C   0  0  0  0  0  0  0  0  0  0  0  0
    2.6378   -1.5229    0.0000 C   0  0  0  0  0  0  0  0  0  0  0  0
    1.9233   -1.1104    0.0000 C   0  0  0  0  0  0  0  0  0  0  0  0
    1.1387   -1.3654    0.0000 C   0  0  0  0  0  0  0  0  0  0  0  0
  1  2  2  0  0  0  0
  2  3  1  0  0  0  0
  2  4  1  0  0  0  0
  4  5  1  0  0  0  0
  5  6  1  0  0  0  0
  6  7  1  0  0  0  0
  7  8  2  0  0  0  0
  8  9  1  0  0  0  0
  9 10  2  0  0  0  0
 10 11  1  0  0  0  0
  6 11  2  0  0  0  0
 11 12  1  0  0  0  0
  4 12  1  0  0  0  0
M  END
>  <Catalog ID>
Z607808530

>  <Plate_ID>
2026997-X50-03

>  <Well>
B09

>  <V, µL>
50

>  <Conc, mM>
10

>  <Formula>
C10H10O2

>  <MW>
162.1852

>  <Purity>
100

>  <PO>
5A-64168

>  <MW_salt>
0

>  <Stereochem.data>
Achiral

>  <Geometric.isomer>
None

>  <Chemical name>
2,3-dihydro-1H-indene-2-carboxylic acid

>  <ClogP>
1,788

>  <logS>
-1,69

>  <HBD>
1

>  <HBA>
2

>  <TPSA>
37,3

>  <RotBonds>
1

$$$$

  Mrv1925 04172511382D          

 12 11  0  0  0  0            999 V2000
    0.0000    0.0000    0.0000 Cl  0  0  0  0  0  0  0  0  0  0  0  0
    3.0716    2.2125    0.0000 C   0  0  0  0  0  0  0  0  0  0  0  0
    3.0716    1.3875    0.0000 C   0  0  0  0  0  0  0  0  0  0  0  0
    2.3571    0.9750    0.0000 O   0  0  0  0  0  0  0  0  0  0  0  0
    3.7861    0.9750    0.0000 N   0  0  0  0  0  0  0  0  0  0  0  0
    3.7861    0.1500    0.0000 C   0  0  0  0  0  0  0  0  0  0  0  0
    4.5006   -0.2625    0.0000 C   0  0  0  0  0  0  0  0  0  0  0  0
    4.5006   -1.0875    0.0000 C   0  0  0  0  0  0  0  0  0  0  0  0
    3.7861   -1.5000    0.0000 C   0  0  0  0  0  0  0  0  0  0  0  0
    3.0716   -1.0875    0.0000 C   0  0  0  0  0  0  0  0  0  0  0  0
    2.3571   -1.5000    0.0000 N   0  0  0  0  0  0  0  0  0  0  0  0
    3.0716   -0.2625    0.0000 C   0  0  0  0  0  0  0  0  0  0  0  0
  2  3  1  0  0  0  0
  3  4  2  0  0  0  0
  3  5  1  0  0  0  0
  5  6  1  0  0  0  0
  6  7  2  0  0  0  0
  7  8  1  0  0  0  0
  8  9  2  0  0  0  0
  9 10  1  0  0  0  0
 10 11  1  0  0  0  0
 10 12  2  0  0  0  0
  6 12  1  0  0  0  0
M  END
>  <Catalog ID>
Z2472857622

>  <Plate_ID>
2026997-X50-03

>  <Well>
C09

>  <V, µL>
50

>  <Conc, mM>
10

>  <Formula>
C8H11ClN2O

>  <MW>
186.6387

>  <Purity>
98.96

>  <PO>
5A-64168

>  <Salt smiles>
Cl

>  <Salt_name>
Hydrochloric Acid

>  <Salt_ratio>
1

>  <MW_salt>
36.4609

>  <Stereochem.data>
Achiral

>  <Geometric.isomer>
None

>  <Chemical name>
N-(3-aminophenyl)acetamide hydrochloride

>  <ClogP>
-0,066

>  <logS>
-1,971

>  <HBD>
2

>  <HBA>
2

>  <TPSA>
55,12

>  <RotBonds>
1

$$$$

  Mrv1925 04172511382D          

 11 12  0  0  0  0            999 V2000
   -0.1712   -0.6979    0.0000 N   0  0  0  0  0  0  0  0  0  0  0  0
    0.6538   -0.6979    0.0000 C   0  0  0  0  0  0  0  0  0  0  0  0
    1.1387   -0.0305    0.0000 N   0  0  0  0  0  0  0  0  0  0  0  0
    1.9233   -0.2854    0.0000 C   0  0  0  0  0  0  0  0  0  0  0  0
    2.6378    0.1271    0.0000 C   0  0  0  0  0  0  0  0  0  0  0  0
    3.3523   -0.2854    0.0000 C   0  0  0  0  0  0  0  0  0  0  0  0
    3.3523   -1.1104    0.0000 C   0  0  0  0  0  0  0  0  0  0  0  0
    4.0668   -1.5229    0.0000 Cl  0  0  0  0  0  0  0  0  0  0  0  0
    2.6378   -1.5229    0.0000 C   0  0  0  0  0  0  0  0  0  0  0  0
    1.9233   -1.1104    0.0000 C   0  0  0  0  0  0  0  0  0  0  0  0
    1.1387   -1.3654    0.0000 S   0  0  0  0  0  0  0  0  0  0  0  0
  1  2  1  0  0  0  0
  2  3  2  0  0  0  0
  3  4  1  0  0  0  0
  4  5  1  0  0  0  0
  5  6  2  0  0  0  0
  6  7  1  0  0  0  0
  7  8  1  0  0  0  0
  7  9  2  0  0  0  0
  9 10  1  0  0  0  0
  4 10  2  0  0  0  0
 10 11  1  0  0  0  0
  2 11  1  0  0  0  0
M  END
>  <Catalog ID>
Z56896352

>  <Plate_ID>
2026997-X50-03

>  <Well>
D09

>  <V, µL>
50

>  <Conc, mM>
10

>  <Formula>
C7H5ClN2S

>  <MW>
184.646

>  <Purity>
100

>  <PO>
5A-64168

>  <MW_salt>
0

>  <Stereochem.data>
Achiral

>  <Geometric.isomer>
None

>  <Chemical name>
6-chloro-1,3-benzothiazol-2-amine

>  <ClogP>
2,545

>  <logS>
-3,28

>  <HBD>
1

>  <HBA>
2

>  <TPSA>
38,91

>  <RotBonds>
0

$$$$

  Mrv1925 04172511382D          

 11 12  0  0  0  0            999 V2000
    0.3020   -2.5070    0.0000 C   0  0  0  0  0  0  0  0  0  0  0  0
    0.0470   -1.7224    0.0000 C   0  0  0  0  0  0  0  0  0  0  0  0
    0.7145   -1.2375    0.0000 N   0  0  0  0  0  0  0  0  0  0  0  0
    1.3819   -1.7224    0.0000 C   0  0  0  0  0  0  0  0  0  0  0  0
    1.1270   -2.5070    0.0000 N   0  0  0  0  0  0  0  0  0  0  0  0
    0.7145   -0.4125    0.0000 C   0  0  0  0  0  0  0  0  0  0  0  0
    0.0000    0.0000    0.0000 C   0  0  0  0  0  0  0  0  0  0  0  0
    0.0000    0.8250    0.0000 C   0  0  0  0  0  0  0  0  0  0  0  0
    0.7145    1.2375    0.0000 C   0  0  0  0  0  0  0  0  0  0  0  0
    1.4289    0.8250    0.0000 C   0  0  0  0  0  0  0  0  0  0  0  0
    1.4289    0.0000    0.0000 C   0  0  0  0  0  0  0  0  0  0  0  0
  1  2  2  0  0  0  0
  2  3  1  0  0  0  0
  3  4  1  0  0  0  0
  4  5  2  0  0  0  0
  1  5  1  0  0  0  0
  3  6  1  0  0  0  0
  6  7  1  0  0  0  0
  7  8  2  0  0  0  0
  8  9  1  0  0  0  0
  9 10  2  0  0  0  0
 10 11  1  0  0  0  0
  6 11  2  0  0  0  0
M  END
>  <Catalog ID>
Z440825046

>  <Plate_ID>
2026997-X50-03

>  <Well>
E09

>  <V, µL>
50

>  <Conc, mM>
10

>  <Formula>
C9H8N2

>  <MW>
144.1732

>  <Purity>
100

>  <PO>
5A-64168

>  <MW_salt>
0

>  <Stereochem.data>
Achiral

>  <Geometric.isomer>
None

>  <Chemical name>
1-phenyl-1H-imidazole

>  <ClogP>
2,08

>  <logS>
-1,53

>  <HBD>
0

>  <HBA>
1

>  <TPSA>
17,82

>  <RotBonds>
1

$$$$

  Mrv1925 04172511382D          

 11 12  0  0  0  0            999 V2000
    0.0768   -2.3215    0.0000 O   0  0  0  0  0  0  0  0  0  0  0  0
    0.8838   -2.1500    0.0000 C   0  0  0  0  0  0  0  0  0  0  0  0
    1.1387   -1.3654    0.0000 N   0  0  0  0  0  0  0  0  0  0  0  0
    0.6538   -0.6979    0.0000 C   0  0  0  0  0  0  0  0  0  0  0  0
    1.1387   -0.0305    0.0000 N   0  0  0  0  0  0  0  0  0  0  0  0
    1.9233   -0.2854    0.0000 C   0  0  0  0  0  0  0  0  0  0  0  0
    2.6378    0.1271    0.0000 C   0  0  0  0  0  0  0  0  0  0  0  0
    3.3523   -0.2854    0.0000 C   0  0  0  0  0  0  0  0  0  0  0  0
    3.3523   -1.1104    0.0000 C   0  0  0  0  0  0  0  0  0  0  0  0
    2.6378   -1.5229    0.0000 C   0  0  0  0  0  0  0  0  0  0  0  0
    1.9233   -1.1104    0.0000 C   0  0  0  0  0  0  0  0  0  0  0  0
  1  2  1  0  0  0  0
  2  3  1  0  0  0  0
  3  4  1  0  0  0  0
  4  5  2  0  0  0  0
  5  6  1  0  0  0  0
  6  7  1  0  0  0  0
  7  8  2  0  0  0  0
  8  9  1  0  0  0  0
  9 10  2  0  0  0  0
 10 11  1  0  0  0  0
  6 11  2  0  0  0  0
  3 11  1  0  0  0  0
M  END
>  <Catalog ID>
Z56926682

>  <Plate_ID>
2026997-X50-03

>  <Well>
F09

>  <V, µL>
50

>  <Conc, mM>
10

>  <Formula>
C8H8N2O

>  <MW>
148.1619

>  <Purity>
95

>  <PO>
5A-64168

>  <MW_salt>
0

>  <Stereochem.data>
Achiral

>  <Geometric.isomer>
None

>  <Chemical name>
(1H-1,3-benzodiazol-1-yl)methanol

>  <ClogP>
0,604

>  <logS>
-1,18

>  <HBD>
1

>  <HBA>
2

>  <TPSA>
38,05

>  <RotBonds>
1

$$$$

  Mrv1925 04172511382D          

 12 13  0  0  0  0            999 V2000
    0.8838   -2.1500    0.0000 O   0  0  0  0  0  0  0  0  0  0  0  0
    1.1387   -1.3654    0.0000 C   0  0  0  0  0  0  0  0  0  0  0  0
    0.6538   -0.6979    0.0000 N   0  0  0  0  0  0  0  0  0  0  0  0
    1.1387   -0.0305    0.0000 S   0  0  0  0  0  0  0  0  0  0  0  0
    0.4243    0.3820    0.0000 O   0  0  0  0  0  0  0  0  0  0  0  0
    1.4743    0.7232    0.0000 O   0  0  0  0  0  0  0  0  0  0  0  0
    1.9233   -0.2854    0.0000 C   0  0  0  0  0  0  0  0  0  0  0  0
    2.6378    0.1271    0.0000 C   0  0  0  0  0  0  0  0  0  0  0  0
    3.3523   -0.2854    0.0000 C   0  0  0  0  0  0  0  0  0  0  0  0
    3.3523   -1.1104    0.0000 C   0  0  0  0  0  0  0  0  0  0  0  0
    2.6378   -1.5229    0.0000 C   0  0  0  0  0  0  0  0  0  0  0  0
    1.9233   -1.1104    0.0000 C   0  0  0  0  0  0  0  0  0  0  0  0
  1  2  2  0  0  0  0
  2  3  1  0  0  0  0
  3  4  1  0  0  0  0
  4  5  2  0  0  0  0
  4  6  2  0  0  0  0
  4  7  1  0  0  0  0
  7  8  2  0  0  0  0
  8  9  1  0  0  0  0
  9 10  2  0  0  0  0
 10 11  1  0  0  0  0
 11 12  2  0  0  0  0
  2 12  1  0  0  0  0
  7 12  1  0  0  0  0
M  END
>  <Catalog ID>
Z256708526

>  <Plate_ID>
2026997-X50-03

>  <Well>
G09

>  <V, µL>
50

>  <Conc, mM>
10

>  <Formula>
C7H5NO3S

>  <MW>
183.1845

>  <Purity>
98.06

>  <PO>
5A-64168

>  <MW_salt>
0

>  <Stereochem.data>
Achiral

>  <Geometric.isomer>
None

>  <Chemical name>
2,3-dihydro-1lambda6,2-benzothiazole-1,1,3-trione

>  <ClogP>
0,718

>  <logS>
-1,77

>  <HBD>
1

>  <HBA>
3

>  <TPSA>
63,24

>  <RotBonds>
0

$$$$

  Mrv1925 04172511382D          

 12 13  0  0  0  0            999 V2000
    0.0768   -2.3215    0.0000 C   0  0  0  0  0  0  0  0  0  0  0  0
    0.8838   -2.1500    0.0000 C   0  0  0  0  0  0  0  0  0  0  0  0
    1.1387   -1.3654    0.0000 N   0  0  0  0  0  0  0  0  0  0  0  0
    0.6538   -0.6979    0.0000 C   0  0  0  0  0  0  0  0  0  0  0  0
   -0.1712   -0.6979    0.0000 O   0  0  0  0  0  0  0  0  0  0  0  0
    1.1387   -0.0305    0.0000 N   0  0  0  0  0  0  0  0  0  0  0  0
    1.9233   -0.2854    0.0000 C   0  0  0  0  0  0  0  0  0  0  0  0
    2.6378    0.1271    0.0000 C   0  0  0  0  0  0  0  0  0  0  0  0
    3.3523   -0.2854    0.0000 C   0  0  0  0  0  0  0  0  0  0  0  0
    3.3523   -1.1104    0.0000 C   0  0  0  0  0  0  0  0  0  0  0  0
    2.6378   -1.5229    0.0000 C   0  0  0  0  0  0  0  0  0  0  0  0
    1.9233   -1.1104    0.0000 C   0  0  0  0  0  0  0  0  0  0  0  0
  1  2  1  0  0  0  0
  2  3  1  0  0  0  0
  3  4  1  0  0  0  0
  4  5  2  0  0  0  0
  4  6  1  0  0  0  0
  6  7  1  0  0  0  0
  7  8  1  0  0  0  0
  8  9  2  0  0  0  0
  9 10  1  0  0  0  0
 10 11  2  0  0  0  0
 11 12  1  0  0  0  0
  7 12  2  0  0  0  0
  3 12  1  0  0  0  0
M  END
>  <Catalog ID>
Z57114989

>  <Plate_ID>
2026997-X50-03

>  <Well>
H09

>  <V, µL>
50

>  <Conc, mM>
10

>  <Formula>
C9H10N2O

>  <MW>
162.1885

>  <Purity>
98.36

>  <PO>
5A-64168

>  <MW_salt>
0

>  <Stereochem.data>
Achiral

>  <Geometric.isomer>
None

>  <Chemical name>
1-ethyl-2,3-dihydro-1H-1,3-benzodiazol-2-one

>  <ClogP>
2,143

>  <logS>
-2,17

>  <HBD>
1

>  <HBA>
1

>  <TPSA>
32,34

>  <RotBonds>
1

$$$$

  Mrv1925 04172511382D          

 12 13  0  0  0  0            999 V2000
    1.6242   -2.5687    0.0000 C   0  0  0  0  0  0  0  0  0  0  0  0
    1.3693   -1.7840    0.0000 C   0  0  0  0  0  0  0  0  0  0  0  0
    2.0367   -1.2991    0.0000 N   0  0  0  0  0  0  0  0  0  0  0  0
    2.7041   -1.7840    0.0000 C   0  0  0  0  0  0  0  0  0  0  0  0
    2.4492   -2.5687    0.0000 N   0  0  0  0  0  0  0  0  0  0  0  0
    2.0367   -0.4741    0.0000 C   0  0  0  0  0  0  0  0  0  0  0  0
    2.7512   -0.0616    0.0000 C   0  0  0  0  0  0  0  0  0  0  0  0
    2.7512    0.7634    0.0000 C   0  0  0  0  0  0  0  0  0  0  0  0
    3.4656    1.1759    0.0000 C   0  0  0  0  0  0  0  0  0  0  0  0
    4.1801    0.7634    0.0000 C   0  0  0  0  0  0  0  0  0  0  0  0
    4.1801   -0.0616    0.0000 C   0  0  0  0  0  0  0  0  0  0  0  0
    3.4656   -0.4741    0.0000 C   0  0  0  0  0  0  0  0  0  0  0  0
  1  2  2  0  0  0  0
  2  3  1  0  0  0  0
  3  4  1  0  0  0  0
  4  5  2  0  0  0  0
  1  5  1  0  0  0  0
  3  6  1  0  0  0  0
  6  7  1  0  0  0  0
  7  8  1  0  0  0  0
  8  9  2  0  0  0  0
  9 10  1  0  0  0  0
 10 11  2  0  0  0  0
 11 12  1  0  0  0  0
  7 12  2  0  0  0  0
M  END
>  <Catalog ID>
Z57842700

>  <Plate_ID>
2026997-X50-03

>  <Well>
A10

>  <V, µL>
50

>  <Conc, mM>
10

>  <Formula>
C10H10N2

>  <MW>
158.1998

>  <Purity>
100

>  <PO>
5A-64168

>  <MW_salt>
0

>  <Stereochem.data>
Achiral

>  <Geometric.isomer>
None

>  <Chemical name>
1-benzyl-1H-imidazole

>  <ClogP>
1,505

>  <logS>
-1,43

>  <HBD>
0

>  <HBA>
1

>  <TPSA>
17,82

>  <RotBonds>
2

$$$$

  Mrv1925 04172511382D          

 11 11  0  0  0  0            999 V2000
    0.0000    3.3000    0.0000 N   0  0  0  0  0  0  0  0  0  0  0  0
    0.0000    2.4750    0.0000 N   0  0  0  0  0  0  0  0  0  0  0  0
    0.7145    2.0625    0.0000 C   0  0  0  0  0  0  0  0  0  0  0  0
    1.4289    2.4750    0.0000 O   0  0  0  0  0  0  0  0  0  0  0  0
    0.7145    1.2375    0.0000 C   0  0  0  0  0  0  0  0  0  0  0  0
    1.4289    0.8250    0.0000 C   0  0  0  0  0  0  0  0  0  0  0  0
    1.4289   -0.0000    0.0000 C   0  0  0  0  0  0  0  0  0  0  0  0
    0.7145   -0.4125    0.0000 C   0  0  0  0  0  0  0  0  0  0  0  0
    0.7145   -1.2375    0.0000 O   0  0  0  0  0  0  0  0  0  0  0  0
    0.0000    0.0000    0.0000 C   0  0  0  0  0  0  0  0  0  0  0  0
    0.0000    0.8250    0.0000 C   0  0  0  0  0  0  0  0  0  0  0  0
  1  2  1  0  0  0  0
  2  3  1  0  0  0  0
  3  4  2  0  0  0  0
  3  5  1  0  0  0  0
  5  6  1  0  0  0  0
  6  7  2  0  0  0  0
  7  8  1  0  0  0  0
  8  9  1  0  0  0  0
  8 10  2  0  0  0  0
 10 11  1  0  0  0  0
  5 11  2  0  0  0  0
M  END
>  <Catalog ID>
Z57036327

>  <Plate_ID>
2026997-X50-03

>  <Well>
B10

>  <V, µL>
50

>  <Conc, mM>
10

>  <Formula>
C7H8N2O2

>  <MW>
152.1506

>  <Purity>
95

>  <PO>
5A-64168

>  <MW_salt>
0

>  <Stereochem.data>
Achiral

>  <Geometric.isomer>
None

>  <Chemical name>
4-hydroxybenzohydrazide

>  <ClogP>
-0,063

>  <logS>
-1,26

>  <HBD>
3

>  <HBA>
3

>  <TPSA>
75,35

>  <RotBonds>
1

$$$$

  Mrv1925 04172511382D          

 10 10  0  0  0  0            999 V2000
    0.0000    2.4750    0.0000 O   0  0  0  0  0  0  0  0  0  0  0  0
    0.7145    2.0625    0.0000 C   0  0  0  0  0  0  0  0  0  0  0  0
    1.4289    2.4750    0.0000 O   0  0  0  0  0  0  0  0  0  0  0  0
    0.7145    1.2375    0.0000 C   0  0  0  0  0  0  0  0  0  0  0  0
    1.4289    0.8250    0.0000 C   0  0  0  0  0  0  0  0  0  0  0  0
    1.4289   -0.0000    0.0000 C   0  0  0  0  0  0  0  0  0  0  0  0
    0.7145   -0.4125    0.0000 C   0  0  0  0  0  0  0  0  0  0  0  0
    0.7145   -1.2375    0.0000 Cl  0  0  0  0  0  0  0  0  0  0  0  0
    0.0000    0.0000    0.0000 C   0  0  0  0  0  0  0  0  0  0  0  0
    0.0000    0.8250    0.0000 C   0  0  0  0  0  0  0  0  0  0  0  0
  1  2  2  0  0  0  0
  2  3  1  0  0  0  0
  2  4  1  0  0  0  0
  4  5  1  0  0  0  0
  5  6  2  0  0  0  0
  6  7  1  0  0  0  0
  7  8  1  0  0  0  0
  7  9  2  0  0  0  0
  9 10  1  0  0  0  0
  4 10  2  0  0  0  0
M  END
>  <Catalog ID>
Z104473324

>  <Plate_ID>
2026997-X50-03

>  <Well>
C10

>  <V, µL>
50

>  <Conc, mM>
10

>  <Formula>
C7H5ClO2

>  <MW>
156.5664

>  <Purity>
95

>  <PO>
5A-64168

>  <MW_salt>
0

>  <Stereochem.data>
Achiral

>  <Geometric.isomer>
None

>  <Chemical name>
4-chlorobenzoic acid

>  <ClogP>
2,696

>  <logS>
-2,28

>  <HBD>
1

>  <HBA>
2

>  <TPSA>
37,3

>  <RotBonds>
1

$$$$

  Mrv1925 04172511382D          

 11 12  0  0  0  0            999 V2000
   -0.1712   -0.6979    0.0000 N   0  0  0  0  0  0  0  0  0  0  0  0
    0.6538   -0.6979    0.0000 C   0  0  0  0  0  0  0  0  0  0  0  0
    1.1387   -0.0305    0.0000 N   0  0  0  0  0  0  0  0  0  0  0  0
    1.9233   -0.2854    0.0000 C   0  0  0  0  0  0  0  0  0  0  0  0
    2.6378    0.1271    0.0000 C   0  0  0  0  0  0  0  0  0  0  0  0
    3.3523   -0.2854    0.0000 C   0  0  0  0  0  0  0  0  0  0  0  0
    3.3523   -1.1104    0.0000 C   0  0  0  0  0  0  0  0  0  0  0  0
    4.0668   -1.5229    0.0000 Br  0  0  0  0  0  0  0  0  0  0  0  0
    2.6378   -1.5229    0.0000 C   0  0  0  0  0  0  0  0  0  0  0  0
    1.9233   -1.1104    0.0000 C   0  0  0  0  0  0  0  0  0  0  0  0
    1.1387   -1.3654    0.0000 S   0  0  0  0  0  0  0  0  0  0  0  0
  1  2  1  0  0  0  0
  2  3  2  0  0  0  0
  3  4  1  0  0  0  0
  4  5  1  0  0  0  0
  5  6  2  0  0  0  0
  6  7  1  0  0  0  0
  7  8  1  0  0  0  0
  7  9  2  0  0  0  0
  9 10  1  0  0  0  0
  4 10  2  0  0  0  0
 10 11  1  0  0  0  0
  2 11  1  0  0  0  0
M  END
>  <Catalog ID>
Z56858257

>  <Plate_ID>
2026997-X50-03

>  <Well>
D10

>  <V, µL>
50

>  <Conc, mM>
10

>  <Formula>
C7H5BrN2S

>  <MW>
229.097

>  <Purity>
97.76

>  <PO>
5A-64168

>  <MW_salt>
0

>  <Stereochem.data>
Achiral

>  <Geometric.isomer>
None

>  <Chemical name>
6-bromo-1,3-benzothiazol-2-amine

>  <ClogP>
2,695

>  <logS>
-3,65

>  <HBD>
1

>  <HBA>
2

>  <TPSA>
38,91

>  <RotBonds>
0

$$$$

  Mrv1925 04172511382D          

  9  9  0  0  0  0            999 V2000
    0.0000    2.4750    0.0000 C   0  0  0  0  0  0  0  0  0  0  0  0
    0.7145    2.0625    0.0000 O   0  0  0  0  0  0  0  0  0  0  0  0
    0.7145    1.2375    0.0000 C   0  0  0  0  0  0  0  0  0  0  0  0
    1.4289    0.8250    0.0000 C   0  0  0  0  0  0  0  0  0  0  0  0
    1.4289   -0.0000    0.0000 C   0  0  0  0  0  0  0  0  0  0  0  0
    0.7145   -0.4125    0.0000 C   0  0  0  0  0  0  0  0  0  0  0  0
    0.7145   -1.2375    0.0000 O   0  0  0  0  0  0  0  0  0  0  0  0
    0.0000    0.0000    0.0000 C   0  0  0  0  0  0  0  0  0  0  0  0
    0.0000    0.8250    0.0000 C   0  0  0  0  0  0  0  0  0  0  0  0
  1  2  1  0  0  0  0
  2  3  1  0  0  0  0
  3  4  1  0  0  0  0
  4  5  2  0  0  0  0
  5  6  1  0  0  0  0
  6  7  1  0  0  0  0
  6  8  2  0  0  0  0
  8  9  1  0  0  0  0
  3  9  2  0  0  0  0
M  END
>  <Catalog ID>
Z104474598

>  <Plate_ID>
2026997-X50-03

>  <Well>
E10

>  <V, µL>
50

>  <Conc, mM>
10

>  <Formula>
C7H8O2

>  <MW>
124.1372

>  <Purity>
100

>  <PO>
5A-64168

>  <MW_salt>
0

>  <Stereochem.data>
Achiral

>  <Geometric.isomer>
None

>  <Chemical name>
4-methoxyphenol

>  <ClogP>
1,574

>  <logS>
-0,99

>  <HBD>
1

>  <HBA>
2

>  <TPSA>
29,46

>  <RotBonds>
1

$$$$

  Mrv1925 04172511382D          

 13 14  0  0  0  0            999 V2000
    0.0768   -2.3215    0.0000 O   0  0  0  0  0  0  0  0  0  0  0  0
    0.8838   -2.1500    0.0000 C   0  0  0  0  0  0  0  0  0  0  0  0
    1.4358   -2.7631    0.0000 O   0  0  0  0  0  0  0  0  0  0  0  0
    1.1387   -1.3654    0.0000 C   0  0  0  0  0  0  0  0  0  0  0  0
    0.6538   -0.6979    0.0000 C   0  0  0  0  0  0  0  0  0  0  0  0
    1.1387   -0.0305    0.0000 N   0  0  0  0  0  0  0  0  0  0  0  0
    1.9233   -0.2854    0.0000 C   0  0  0  0  0  0  0  0  0  0  0  0
    2.6378    0.1271    0.0000 C   0  0  0  0  0  0  0  0  0  0  0  0
    3.3523   -0.2854    0.0000 C   0  0  0  0  0  0  0  0  0  0  0  0
    4.0668    0.1271    0.0000 Cl  0  0  0  0  0  0  0  0  0  0  0  0
    3.3523   -1.1104    0.0000 C   0  0  0  0  0  0  0  0  0  0  0  0
    2.6378   -1.5229    0.0000 C   0  0  0  0  0  0  0  0  0  0  0  0
    1.9233   -1.1104    0.0000 C   0  0  0  0  0  0  0  0  0  0  0  0
  1  2  2  0  0  0  0
  2  3  1  0  0  0  0
  2  4  1  0  0  0  0
  4  5  2  0  0  0  0
  5  6  1  0  0  0  0
  6  7  1  0  0  0  0
  7  8  1  0  0  0  0
  8  9  2  0  0  0  0
  9 10  1  0  0  0  0
  9 11  1  0  0  0  0
 11 12  2  0  0  0  0
 12 13  1  0  0  0  0
  4 13  1  0  0  0  0
  7 13  2  0  0  0  0
M  END
>  <Catalog ID>
Z385446076

>  <Plate_ID>
2026997-X50-03

>  <Well>
F10

>  <V, µL>
50

>  <Conc, mM>
10

>  <Formula>
C9H6ClNO2

>  <MW>
195.6024

>  <Purity>
98.91

>  <PO>
5A-64168

>  <MW_salt>
0

>  <Stereochem.data>
Achiral

>  <Geometric.isomer>
None

>  <Chemical name>
6-chloro-1H-indole-3-carboxylic acid

>  <ClogP>
2,925

>  <logS>
-3,09

>  <HBD>
2

>  <HBA>
2

>  <TPSA>
53,09

>  <RotBonds>
1

$$$$

  Mrv1925 04172511382D          

 10 10  0  0  0  0            999 V2000
    0.7145    2.0625    0.0000 C   0  0  0  0  0  0  0  0  0  0  0  0
    0.7145    1.2375    0.0000 C   0  0  0  0  0  0  0  0  0  0  0  0
    1.4289    0.8250    0.0000 C   0  0  0  0  0  0  0  0  0  0  0  0
    1.4289   -0.0000    0.0000 C   0  0  0  0  0  0  0  0  0  0  0  0
    0.7145   -0.4125    0.0000 C   0  0  0  0  0  0  0  0  0  0  0  0
    0.0000    0.0000    0.0000 C   0  0  0  0  0  0  0  0  0  0  0  0
    0.0000    0.8250    0.0000 C   0  0  0  0  0  0  0  0  0  0  0  0
   -0.7145    1.2375    0.0000 C   0  0  0  0  0  0  0  0  0  0  0  0
   -1.4289    0.8250    0.0000 O   0  0  0  0  0  0  0  0  0  0  0  0
   -0.7145    2.0625    0.0000 O   0  0  0  0  0  0  0  0  0  0  0  0
  1  2  1  0  0  0  0
  2  3  1  0  0  0  0
  3  4  2  0  0  0  0
  4  5  1  0  0  0  0
  5  6  2  0  0  0  0
  6  7  1  0  0  0  0
  2  7  2  0  0  0  0
  7  8  1  0  0  0  0
  8  9  2  0  0  0  0
  8 10  1  0  0  0  0
M  END
>  <Catalog ID>
Z104495626

>  <Plate_ID>
2026997-X50-03

>  <Well>
G10

>  <V, µL>
50

>  <Conc, mM>
10

>  <Formula>
C8H8O2

>  <MW>
136.1479

>  <Purity>
100

>  <PO>
5A-64168

>  <MW_salt>
0

>  <Stereochem.data>
Achiral

>  <Geometric.isomer>
None

>  <Chemical name>
2-methylbenzoic acid

>  <ClogP>
2,084

>  <logS>
-2,02

>  <HBD>
1

>  <HBA>
2

>  <TPSA>
37,3

>  <RotBonds>
1

$$$$

  Mrv1925 04172511382D          

 11 11  0  0  0  0            999 V2000
    0.0000    2.4750    0.0000 C   0  0  0  0  0  0  0  0  0  0  0  0
    0.7145    2.0625    0.0000 O   0  0  0  0  0  0  0  0  0  0  0  0
    0.7145    1.2375    0.0000 C   0  0  0  0  0  0  0  0  0  0  0  0
    1.4289    0.8250    0.0000 C   0  0  0  0  0  0  0  0  0  0  0  0
    1.4289   -0.0000    0.0000 C   0  0  0  0  0  0  0  0  0  0  0  0
    0.7145   -0.4125    0.0000 C   0  0  0  0  0  0  0  0  0  0  0  0
    0.0000    0.0000    0.0000 C   0  0  0  0  0  0  0  0  0  0  0  0
    0.0000    0.8250    0.0000 C   0  0  0  0  0  0  0  0  0  0  0  0
    0.7145   -1.2375    0.0000 C   0  0  0  0  0  0  0  0  0  0  0  0
    1.4289   -1.6500    0.0000 O   0  0  0  0  0  0  0  0  0  0  0  0
   -0.0000   -1.6500    0.0000 O   0  0  0  0  0  0  0  0  0  0  0  0
  1  2  1  0  0  0  0
  2  3  1  0  0  0  0
  3  4  1  0  0  0  0
  4  5  2  0  0  0  0
  5  6  1  0  0  0  0
  6  7  2  0  0  0  0
  7  8  1  0  0  0  0
  3  8  2  0  0  0  0
  6  9  1  0  0  0  0
  9 10  2  0  0  0  0
  9 11  1  0  0  0  0
M  END
>  <Catalog ID>
Z56931884

>  <Plate_ID>
2026997-X50-03

>  <Well>
H10

>  <V, µL>
50

>  <Conc, mM>
10

>  <Formula>
C8H8O3

>  <MW>
152.1473

>  <Purity>
95

>  <PO>
5A-64168

>  <MW_salt>
0

>  <Stereochem.data>
Achiral

>  <Geometric.isomer>
None

>  <Chemical name>
4-methoxybenzoic acid

>  <ClogP>
2,023

>  <logS>
-1,55

>  <HBD>
1

>  <HBA>
3

>  <TPSA>
46,53

>  <RotBonds>
2

$$$$

  Mrv1925 04172511382D          

 11 12  0  0  0  0            999 V2000
    0.0000   -1.6500    0.0000 O   0  0  0  0  0  0  0  0  0  0  0  0
    0.7145   -1.2375    0.0000 C   0  0  0  0  0  0  0  0  0  0  0  0
    0.7145   -0.4125    0.0000 C   0  0  0  0  0  0  0  0  0  0  0  0
    1.4289    0.0000    0.0000 C   0  0  0  0  0  0  0  0  0  0  0  0
    2.1434   -0.4125    0.0000 C   0  0  0  0  0  0  0  0  0  0  0  0
    2.8579    0.0000    0.0000 C   0  0  0  0  0  0  0  0  0  0  0  0
    3.5724   -0.4125    0.0000 C   0  0  0  0  0  0  0  0  0  0  0  0
    3.5724   -1.2375    0.0000 C   0  0  0  0  0  0  0  0  0  0  0  0
    2.8579   -1.6500    0.0000 C   0  0  0  0  0  0  0  0  0  0  0  0
    2.1434   -1.2375    0.0000 C   0  0  0  0  0  0  0  0  0  0  0  0
    1.4289   -1.6500    0.0000 N   0  0  0  0  0  0  0  0  0  0  0  0
  1  2  2  0  0  0  0
  2  3  1  0  0  0  0
  3  4  2  0  0  0  0
  4  5  1  0  0  0  0
  5  6  1  0  0  0  0
  6  7  2  0  0  0  0
  7  8  1  0  0  0  0
  8  9  2  0  0  0  0
  9 10  1  0  0  0  0
  5 10  2  0  0  0  0
 10 11  1  0  0  0  0
  2 11  1  0  0  0  0
M  END
>  <Catalog ID>
Z57473020

>  <Plate_ID>
2026997-X50-03

>  <Well>
A11

>  <V, µL>
50

>  <Conc, mM>
10

>  <Formula>
C9H7NO

>  <MW>
145.158

>  <Purity>
98.77

>  <PO>
5A-64168

>  <MW_salt>
0

>  <Stereochem.data>
Achiral

>  <Geometric.isomer>
None

>  <Chemical name>
1,2-dihydroquinolin-2-one

>  <ClogP>
0,812

>  <logS>
-2,6

>  <HBD>
1

>  <HBA>
1

>  <TPSA>
29,1

>  <RotBonds>
0

$$$$

  Mrv1925 04172511382D          

 10 11  0  0  0  0            999 V2000
   -0.1712   -0.6979    0.0000 N   0  0  0  0  0  0  0  0  0  0  0  0
    0.6538   -0.6979    0.0000 C   0  0  0  0  0  0  0  0  0  0  0  0
    1.1387   -0.0305    0.0000 N   0  0  0  0  0  0  0  0  0  0  0  0
    1.9233   -0.2854    0.0000 C   0  0  0  0  0  0  0  0  0  0  0  0
    2.6378    0.1271    0.0000 C   0  0  0  0  0  0  0  0  0  0  0  0
    3.3523   -0.2854    0.0000 C   0  0  0  0  0  0  0  0  0  0  0  0
    3.3523   -1.1104    0.0000 C   0  0  0  0  0  0  0  0  0  0  0  0
    2.6378   -1.5229    0.0000 C   0  0  0  0  0  0  0  0  0  0  0  0
    1.9233   -1.1104    0.0000 C   0  0  0  0  0  0  0  0  0  0  0  0
    1.1387   -1.3654    0.0000 S   0  0  0  0  0  0  0  0  0  0  0  0
  1  2  1  0  0  0  0
  2  3  2  0  0  0  0
  3  4  1  0  0  0  0
  4  5  1  0  0  0  0
  5  6  2  0  0  0  0
  6  7  1  0  0  0  0
  7  8  2  0  0  0  0
  8  9  1  0  0  0  0
  4  9  2  0  0  0  0
  9 10  1  0  0  0  0
  2 10  1  0  0  0  0
M  END
>  <Catalog ID>
Z56912586

>  <Plate_ID>
2026997-X50-03

>  <Well>
B11

>  <V, µL>
50

>  <Conc, mM>
10

>  <Formula>
C7H6N2S

>  <MW>
150.2009

>  <Purity>
95

>  <PO>
5A-64168

>  <MW_salt>
0

>  <Stereochem.data>
Achiral

>  <Geometric.isomer>
None

>  <Chemical name>
1,3-benzothiazol-2-amine

>  <ClogP>
1,823

>  <logS>
-2,51

>  <HBD>
1

>  <HBA>
2

>  <TPSA>
38,91

>  <RotBonds>
0

$$$$

  Mrv1925 04172511382D          

 12 12  0  0  0  0            999 V2000
    1.4289    2.4750    0.0000 O   0  0  0  0  0  0  0  0  0  0  0  0
    0.7145    2.0625    0.0000 C   0  0  0  0  0  0  0  0  0  0  0  0
    0.0000    2.4750    0.0000 O   0  0  0  0  0  0  0  0  0  0  0  0
    0.7145    1.2375    0.0000 C   0  0  0  0  0  0  0  0  0  0  0  0
    1.4289    0.8250    0.0000 C   0  0  0  0  0  0  0  0  0  0  0  0
    1.4289   -0.0000    0.0000 C   0  0  0  0  0  0  0  0  0  0  0  0
    0.7145   -0.4125    0.0000 C   0  0  0  0  0  0  0  0  0  0  0  0
    0.0000    0.0000    0.0000 C   0  0  0  0  0  0  0  0  0  0  0  0
    0.0000    0.8250    0.0000 N   0  0  0  0  0  0  0  0  0  0  0  0
   -0.7145   -0.4125    0.0000 C   0  0  0  0  0  0  0  0  0  0  0  0
   -0.7145   -1.2375    0.0000 O   0  0  0  0  0  0  0  0  0  0  0  0
   -1.4289    0.0000    0.0000 O   0  0  0  0  0  0  0  0  0  0  0  0
  1  2  2  0  0  0  0
  2  3  1  0  0  0  0
  2  4  1  0  0  0  0
  4  5  2  0  0  0  0
  5  6  1  0  0  0  0
  6  7  2  0  0  0  0
  7  8  1  0  0  0  0
  8  9  2  0  0  0  0
  4  9  1  0  0  0  0
  8 10  1  0  0  0  0
 10 11  2  0  0  0  0
 10 12  1  0  0  0  0
M  END
>  <Catalog ID>
Z57202012

>  <Plate_ID>
2026997-X50-03

>  <Well>
C11

>  <V, µL>
50

>  <Conc, mM>
10

>  <Formula>
C7H5NO4

>  <MW>
167.1189

>  <Purity>
98

>  <PO>
5A-64168

>  <MW_salt>
0

>  <Stereochem.data>
Achiral

>  <Geometric.isomer>
None

>  <Chemical name>
pyridine-2,6-dicarboxylic acid

>  <ClogP>
1,078

>  <logS>
-1,04

>  <HBD>
2

>  <HBA>
5

>  <TPSA>
87,49

>  <RotBonds>
2

$$$$

  Mrv1925 04172511382D          

 12 12  0  0  0  0            999 V2000
    0.0000    2.4750    0.0000 C   0  0  0  0  0  0  0  0  0  0  0  0
    0.7145    2.0625    0.0000 O   0  0  0  0  0  0  0  0  0  0  0  0
    0.7145    1.2375    0.0000 C   0  0  0  0  0  0  0  0  0  0  0  0
    1.4289    0.8250    0.0000 C   0  0  0  0  0  0  0  0  0  0  0  0
    1.4289   -0.0000    0.0000 C   0  0  0  0  0  0  0  0  0  0  0  0
    0.7145   -0.4125    0.0000 C   0  0  0  0  0  0  0  0  0  0  0  0
    0.0000    0.0000    0.0000 C   0  0  0  0  0  0  0  0  0  0  0  0
    0.0000    0.8250    0.0000 C   0  0  0  0  0  0  0  0  0  0  0  0
    0.7145   -1.2375    0.0000 S   0  0  0  0  0  0  0  0  0  0  0  0
    0.7145   -2.0625    0.0000 N   0  0  0  0  0  0  0  0  0  0  0  0
   -0.1105   -1.2375    0.0000 O   0  0  0  0  0  0  0  0  0  0  0  0
    1.5395   -1.2375    0.0000 O   0  0  0  0  0  0  0  0  0  0  0  0
  1  2  1  0  0  0  0
  2  3  1  0  0  0  0
  3  4  1  0  0  0  0
  4  5  2  0  0  0  0
  5  6  1  0  0  0  0
  6  7  2  0  0  0  0
  7  8  1  0  0  0  0
  3  8  2  0  0  0  0
  6  9  1  0  0  0  0
  9 10  1  0  0  0  0
  9 11  2  0  0  0  0
  9 12  2  0  0  0  0
M  END
>  <Catalog ID>
Z45415561

>  <Plate_ID>
2026997-X50-03

>  <Well>
D11

>  <V, µL>
50

>  <Conc, mM>
10

>  <Formula>
C7H9NO3S

>  <MW>
187.2163

>  <Purity>
100

>  <PO>
5A-64168

>  <MW_salt>
0

>  <Stereochem.data>
Achiral

>  <Geometric.isomer>
None

>  <Chemical name>
4-methoxybenzene-1-sulfonamide

>  <ClogP>
0,549

>  <logS>
-1,36

>  <HBD>
1

>  <HBA>
3

>  <TPSA>
69,39

>  <RotBonds>
2

$$$$

  Mrv1925 04172511382D          

 12 12  0  0  0  0            999 V2000
    0.0000    4.1250    0.0000 C   0  0  0  0  0  0  0  0  0  0  0  0
    0.0000    3.3000    0.0000 S   0  0  0  0  0  0  0  0  0  0  0  0
   -0.8250    3.3000    0.0000 O   0  0  0  0  0  0  0  0  0  0  0  0
    0.8250    3.3000    0.0000 O   0  0  0  0  0  0  0  0  0  0  0  0
    0.0000    2.4750    0.0000 N   0  0  0  0  0  0  0  0  0  0  0  0
    0.7145    2.0625    0.0000 C   0  0  0  0  0  0  0  0  0  0  0  0
    0.7145    1.2375    0.0000 C   0  0  0  0  0  0  0  0  0  0  0  0
    1.4289    0.8250    0.0000 C   0  0  0  0  0  0  0  0  0  0  0  0
    1.4289   -0.0000    0.0000 C   0  0  0  0  0  0  0  0  0  0  0  0
    0.7145   -0.4125    0.0000 N   0  0  0  0  0  0  0  0  0  0  0  0
    0.0000    0.0000    0.0000 C   0  0  0  0  0  0  0  0  0  0  0  0
    0.0000    0.8250    0.0000 C   0  0  0  0  0  0  0  0  0  0  0  0
  1  2  1  0  0  0  0
  2  3  2  0  0  0  0
  2  4  2  0  0  0  0
  2  5  1  0  0  0  0
  5  6  1  0  0  0  0
  6  7  1  0  0  0  0
  7  8  1  0  0  0  0
  8  9  1  0  0  0  0
  9 10  1  0  0  0  0
 10 11  1  0  0  0  0
 11 12  1  0  0  0  0
  7 12  1  0  0  0  0
M  END
>  <Catalog ID>
Z285141528

>  <Plate_ID>
2026997-X50-03

>  <Well>
E11

>  <V, µL>
50

>  <Conc, mM>
10

>  <Formula>
C7H16N2O2S

>  <MW>
192.2791

>  <Purity>
100

>  <PO>
5A-64168

>  <MW_salt>
0

>  <Stereochem.data>
Achiral

>  <Geometric.isomer>
None

>  <Chemical name>
N-[(piperidin-4-yl)methyl]methanesulfonamide

>  <ClogP>
-0,637

>  <logS>
0,47

>  <HBD>
2

>  <HBA>
3

>  <TPSA>
58,2

>  <RotBonds>
2

$$$$

  Mrv1925 04172511382D          

 10 11  0  0  0  0            999 V2000
    2.1787   -0.2550    0.0000 C   0  0  0  0  0  0  0  0  0  0  0  0
    1.3941   -0.0001    0.0000 N   0  0  0  0  0  0  0  0  0  0  0  0
    1.1624    0.9268    0.0000 C   0  0  0  0  0  0  0  0  0  0  0  0
    0.5174    0.4124    0.0000 C   0  0  0  0  0  0  0  0  0  0  0  0
    0.5174   -0.4126    0.0000 C   0  0  0  0  0  0  0  0  0  0  0  0
    1.1624   -0.9270    0.0000 C   0  0  0  0  0  0  0  0  0  0  0  0
    1.9667   -0.7434    0.0000 C   0  0  0  0  0  0  0  0  0  0  0  0
    2.3247   -0.0001    0.0000 C   0  0  0  0  0  0  0  0  0  0  0  0
    3.1497   -0.0001    0.0000 O   0  0  0  0  0  0  0  0  0  0  0  0
    1.9667    0.7432    0.0000 C   0  0  0  0  0  0  0  0  0  0  0  0
  1  2  1  0  0  0  0
  2  3  1  0  0  0  0
  3  4  1  0  0  0  0
  4  5  1  0  0  0  0
  5  6  1  0  0  0  0
  2  6  1  0  0  0  0
  6  7  1  0  0  0  0
  7  8  1  0  0  0  0
  8  9  2  0  0  0  0
  8 10  1  0  0  0  0
  3 10  1  0  0  0  0
M  END
>  <Catalog ID>
Z362847958

>  <Plate_ID>
2026997-X50-03

>  <Well>
F11

>  <V, µL>
50

>  <Conc, mM>
10

>  <Formula>
C8H13NO

>  <MW>
139.1949

>  <Purity>
95

>  <PO>
5A-64168

>  <MW_salt>
0

>  <Stereochem.data>
Diastereomeric mixture

>  <Geometric.isomer>
Unequal mixture of geometric isomers

>  <Chemical name>
8-methyl-8-azabicyclo[3.2.1]octan-3-one

>  <ClogP>
0,418

>  <logS>
-0,16

>  <HBD>
0

>  <HBA>
2

>  <TPSA>
20,31

>  <RotBonds>
0

$$$$

  Mrv1925 04172511382D          

 10 10  0  0  0  0            999 V2000
    0.0000    2.4750    0.0000 O   0  0  0  0  0  0  0  0  0  0  0  0
    0.7145    2.0625    0.0000 C   0  0  0  0  0  0  0  0  0  0  0  0
    1.4289    2.4750    0.0000 O   0  0  0  0  0  0  0  0  0  0  0  0
    0.7145    1.2375    0.0000 C   0  0  0  0  0  0  0  0  0  0  0  0
    1.4289    0.8250    0.0000 C   0  0  0  0  0  0  0  0  0  0  0  0
    1.4289   -0.0000    0.0000 C   0  0  0  0  0  0  0  0  0  0  0  0
    0.7145   -0.4125    0.0000 C   0  0  0  0  0  0  0  0  0  0  0  0
    0.7145   -1.2375    0.0000 F   0  0  0  0  0  0  0  0  0  0  0  0
    0.0000    0.0000    0.0000 C   0  0  0  0  0  0  0  0  0  0  0  0
    0.0000    0.8250    0.0000 C   0  0  0  0  0  0  0  0  0  0  0  0
  1  2  2  0  0  0  0
  2  3  1  0  0  0  0
  2  4  1  0  0  0  0
  4  5  1  0  0  0  0
  5  6  2  0  0  0  0
  6  7  1  0  0  0  0
  7  8  1  0  0  0  0
  7  9  2  0  0  0  0
  9 10  1  0  0  0  0
  4 10  2  0  0  0  0
M  END
>  <Catalog ID>
Z57367354

>  <Plate_ID>
2026997-X50-03

>  <Well>
G11

>  <V, µL>
50

>  <Conc, mM>
10

>  <Formula>
C7H5FO2

>  <MW>
140.1118

>  <Purity>
95

>  <PO>
5A-64168

>  <MW_salt>
0

>  <Stereochem.data>
Achiral

>  <Geometric.isomer>
None

>  <Chemical name>
4-fluorobenzoic acid

>  <ClogP>
2,126

>  <logS>
-1,8

>  <HBD>
1

>  <HBA>
2

>  <TPSA>
37,3

>  <RotBonds>
1

$$$$

  Mrv1925 04172511382D          

 11 11  0  0  0  0            999 V2000
   -0.7145    3.7125    0.0000 O   0  0  0  0  0  0  0  0  0  0  0  0
    0.0000    3.3000    0.0000 C   0  0  0  0  0  0  0  0  0  0  0  0
    0.7145    3.7125    0.0000 O   0  0  0  0  0  0  0  0  0  0  0  0
    0.0000    2.4750    0.0000 C   0  0  0  0  0  0  0  0  0  0  0  0
    0.7145    2.0625    0.0000 O   0  0  0  0  0  0  0  0  0  0  0  0
    0.7145    1.2375    0.0000 C   0  0  0  0  0  0  0  0  0  0  0  0
    1.4289    0.8250    0.0000 C   0  0  0  0  0  0  0  0  0  0  0  0
    1.4289   -0.0000    0.0000 C   0  0  0  0  0  0  0  0  0  0  0  0
    0.7145   -0.4125    0.0000 C   0  0  0  0  0  0  0  0  0  0  0  0
    0.0000    0.0000    0.0000 C   0  0  0  0  0  0  0  0  0  0  0  0
    0.0000    0.8250    0.0000 C   0  0  0  0  0  0  0  0  0  0  0  0
  1  2  2  0  0  0  0
  2  3  1  0  0  0  0
  2  4  1  0  0  0  0
  4  5  1  0  0  0  0
  5  6  1  0  0  0  0
  6  7  1  0  0  0  0
  7  8  2  0  0  0  0
  8  9  1  0  0  0  0
  9 10  2  0  0  0  0
 10 11  1  0  0  0  0
  6 11  2  0  0  0  0
M  END
>  <Catalog ID>
Z57182011

>  <Plate_ID>
2026997-X50-03

>  <Well>
H11

>  <V, µL>
50

>  <Conc, mM>
10

>  <Formula>
C8H8O3

>  <MW>
152.1473

>  <Purity>
100

>  <PO>
5A-64168

>  <MW_salt>
0

>  <Stereochem.data>
Achiral

>  <Geometric.isomer>
None

>  <Chemical name>
2-phenoxyacetic acid

>  <ClogP>
1,35

>  <logS>
-1,47

>  <HBD>
1

>  <HBA>
3

>  <TPSA>
46,53

>  <RotBonds>
3

$$$$

  Mrv1925 04172511382D          

 13 13  0  0  0  0            999 V2000
    0.0000    3.3000    0.0000 C   0  0  0  0  0  0  0  0  0  0  0  0
    0.0000    2.4750    0.0000 C   0  0  0  0  0  0  0  0  0  0  0  0
    0.7145    2.0625    0.0000 O   0  0  0  0  0  0  0  0  0  0  0  0
    0.7145    1.2375    0.0000 C   0  0  0  0  0  0  0  0  0  0  0  0
    1.4289    0.8250    0.0000 C   0  0  0  0  0  0  0  0  0  0  0  0
    1.4289   -0.0000    0.0000 C   0  0  0  0  0  0  0  0  0  0  0  0
    0.7145   -0.4125    0.0000 C   0  0  0  0  0  0  0  0  0  0  0  0
    0.0000    0.0000    0.0000 C   0  0  0  0  0  0  0  0  0  0  0  0
    0.0000    0.8250    0.0000 C   0  0  0  0  0  0  0  0  0  0  0  0
    0.7145   -1.2375    0.0000 S   0  0  0  0  0  0  0  0  0  0  0  0
    0.7145   -2.0625    0.0000 N   0  0  0  0  0  0  0  0  0  0  0  0
   -0.1105   -1.2375    0.0000 O   0  0  0  0  0  0  0  0  0  0  0  0
    1.5395   -1.2375    0.0000 O   0  0  0  0  0  0  0  0  0  0  0  0
  1  2  1  0  0  0  0
  2  3  1  0  0  0  0
  3  4  1  0  0  0  0
  4  5  1  0  0  0  0
  5  6  2  0  0  0  0
  6  7  1  0  0  0  0
  7  8  2  0  0  0  0
  8  9  1  0  0  0  0
  4  9  2  0  0  0  0
  7 10  1  0  0  0  0
 10 11  1  0  0  0  0
 10 12  2  0  0  0  0
 10 13  2  0  0  0  0
M  END
>  <Catalog ID>
Z45415565

>  <Plate_ID>
2026997-X50-04

>  <Well>
A02

>  <V, µL>
50

>  <Conc, mM>
10

>  <Formula>
C8H11NO3S

>  <MW>
201.2428

>  <Purity>
96.99

>  <PO>
5A-64168

>  <MW_salt>
0

>  <Stereochem.data>
Achiral

>  <Geometric.isomer>
None

>  <Chemical name>
4-ethoxybenzene-1-sulfonamide

>  <ClogP>
1,078

>  <logS>
-1,709

>  <HBD>
1

>  <HBA>
3

>  <TPSA>
69,39

>  <RotBonds>
3

$$$$

  Mrv1925 04172511382D          

 14 15  0  0  0  0            999 V2000
   -0.1781   -3.1062    0.0000 O   0  0  0  0  0  0  0  0  0  0  0  0
    0.0768   -2.3215    0.0000 C   0  0  0  0  0  0  0  0  0  0  0  0
   -0.4752   -1.7084    0.0000 O   0  0  0  0  0  0  0  0  0  0  0  0
    0.8838   -2.1500    0.0000 C   0  0  0  0  0  0  0  0  0  0  0  0
    1.1387   -1.3654    0.0000 C   0  0  0  0  0  0  0  0  0  0  0  0
    0.6538   -0.6979    0.0000 C   0  0  0  0  0  0  0  0  0  0  0  0
    1.1387   -0.0305    0.0000 N   0  0  0  0  0  0  0  0  0  0  0  0
    1.9233   -0.2854    0.0000 C   0  0  0  0  0  0  0  0  0  0  0  0
    2.6378    0.1271    0.0000 C   0  0  0  0  0  0  0  0  0  0  0  0
    3.3523   -0.2854    0.0000 C   0  0  0  0  0  0  0  0  0  0  0  0
    3.3523   -1.1104    0.0000 C   0  0  0  0  0  0  0  0  0  0  0  0
    4.0668   -1.5229    0.0000 Br  0  0  0  0  0  0  0  0  0  0  0  0
    2.6378   -1.5229    0.0000 C   0  0  0  0  0  0  0  0  0  0  0  0
    1.9233   -1.1104    0.0000 C   0  0  0  0  0  0  0  0  0  0  0  0
  1  2  2  0  0  0  0
  2  3  1  0  0  0  0
  2  4  1  0  0  0  0
  4  5  1  0  0  0  0
  5  6  2  0  0  0  0
  6  7  1  0  0  0  0
  7  8  1  0  0  0  0
  8  9  1  0  0  0  0
  9 10  2  0  0  0  0
 10 11  1  0  0  0  0
 11 12  1  0  0  0  0
 11 13  2  0  0  0  0
 13 14  1  0  0  0  0
  5 14  1  0  0  0  0
  8 14  2  0  0  0  0
M  END
>  <Catalog ID>
Z596250880

>  <Plate_ID>
2026997-X50-04

>  <Well>
B02

>  <V, µL>
50

>  <Conc, mM>
10

>  <Formula>
C10H8BrNO2

>  <MW>
254.08

>  <Purity>
98.92

>  <PO>
5A-64168

>  <MW_salt>
0

>  <Stereochem.data>
Achiral

>  <Geometric.isomer>
None

>  <Chemical name>
2-(5-bromo-1H-indol-3-yl)acetic acid

>  <ClogP>
2,435

>  <logS>
-2,98

>  <HBD>
2

>  <HBA>
2

>  <TPSA>
53,09

>  <RotBonds>
2

$$$$

  Mrv1925 04172511382D          

 14 14  0  0  0  0            999 V2000
    0.0000    0.0000    0.0000 Cl  0  0  0  0  0  0  0  0  0  0  0  0
    2.3571   -1.9229    0.0000 N   0  0  0  0  0  0  0  0  0  0  0  0
    2.6121   -1.1383    0.0000 C   0  0  0  0  0  0  0  0  0  0  0  0
    3.4191   -0.9668    0.0000 C   0  0  0  0  0  0  0  0  0  0  0  0
    3.6740   -0.1821    0.0000 C   0  0  0  0  0  0  0  0  0  0  0  0
    3.1891    0.4853    0.0000 C   0  0  0  0  0  0  0  0  0  0  0  0
    3.6740    1.1527    0.0000 N   0  0  0  0  0  0  0  0  0  0  0  0
    4.4586    0.8978    0.0000 C   0  0  0  0  0  0  0  0  0  0  0  0
    5.1731    1.3103    0.0000 C   0  0  0  0  0  0  0  0  0  0  0  0
    5.8876    0.8978    0.0000 C   0  0  0  0  0  0  0  0  0  0  0  0
    5.8876    0.0728    0.0000 C   0  0  0  0  0  0  0  0  0  0  0  0
    6.6020   -0.3397    0.0000 F   0  0  0  0  0  0  0  0  0  0  0  0
    5.1731   -0.3397    0.0000 C   0  0  0  0  0  0  0  0  0  0  0  0
    4.4586    0.0728    0.0000 C   0  0  0  0  0  0  0  0  0  0  0  0
  2  3  1  0  0  0  0
  3  4  1  0  0  0  0
  4  5  1  0  0  0  0
  5  6  2  0  0  0  0
  6  7  1  0  0  0  0
  7  8  1  0  0  0  0
  8  9  1  0  0  0  0
  9 10  2  0  0  0  0
 10 11  1  0  0  0  0
 11 12  1  0  0  0  0
 11 13  2  0  0  0  0
 13 14  1  0  0  0  0
  5 14  1  0  0  0  0
  8 14  2  0  0  0  0
M  END
>  <Catalog ID>
Z1741960310

>  <Plate_ID>
2026997-X50-04

>  <Well>
C02

>  <V, µL>
50

>  <Conc, mM>
10

>  <Formula>
C10H12ClFN2

>  <MW>
214.6671

>  <Purity>
100

>  <PO>
5A-64168

>  <Salt smiles>
Cl

>  <Salt_name>
Hydrochloric Acid

>  <Salt_ratio>
1

>  <MW_salt>
36.4609

>  <Stereochem.data>
Achiral

>  <Geometric.isomer>
None

>  <Chemical name>
2-(5-fluoro-1H-indol-3-yl)ethan-1-amine hydrochloride

>  <ClogP>
1,734

>  <logS>
-2,77

>  <HBD>
2

>  <HBA>
1

>  <TPSA>
41,81

>  <RotBonds>
2

$$$$

  Mrv1925 04172511382D          

 12 12  0  0  0  0            999 V2000
   -0.8612    3.5893    0.0000 C   0  0  0  0  0  0  0  0  0  0  0  0
   -0.1467    3.1768    0.0000 C   0  0  0  0  0  0  0  0  0  0  0  0
   -0.1467    2.3518    0.0000 O   0  0  0  0  0  0  0  0  0  0  0  0
    0.5678    1.9393    0.0000 C   0  0  0  0  0  0  0  0  0  0  0  0
    1.2822    2.3518    0.0000 O   0  0  0  0  0  0  0  0  0  0  0  0
    0.5678    1.1143    0.0000 C   0  0  0  0  0  0  0  0  0  0  0  0
    1.2352    0.6294    0.0000 C   0  0  0  0  0  0  0  0  0  0  0  0
    2.0198    0.8843    0.0000 C   0  0  0  0  0  0  0  0  0  0  0  0
    0.9803   -0.1553    0.0000 N   0  0  0  0  0  0  0  0  0  0  0  0
    0.1553   -0.1553    0.0000 N   0  0  0  0  0  0  0  0  0  0  0  0
   -0.0997    0.6294    0.0000 C   0  0  0  0  0  0  0  0  0  0  0  0
   -0.8843    0.8843    0.0000 C   0  0  0  0  0  0  0  0  0  0  0  0
  1  2  1  0  0  0  0
  2  3  1  0  0  0  0
  3  4  1  0  0  0  0
  4  5  2  0  0  0  0
  4  6  1  0  0  0  0
  6  7  1  0  0  0  0
  7  8  1  0  0  0  0
  7  9  2  0  0  0  0
  9 10  1  0  0  0  0
 10 11  1  0  0  0  0
  6 11  2  0  0  0  0
 11 12  1  0  0  0  0
M  END
>  <Catalog ID>
Z1201619441

>  <Plate_ID>
2026997-X50-04

>  <Well>
D02

>  <V, µL>
50

>  <Conc, mM>
10

>  <Formula>
C8H12N2O2

>  <MW>
168.1931

>  <Purity>
100

>  <PO>
5A-64168

>  <MW_salt>
0

>  <Stereochem.data>
Achiral

>  <Geometric.isomer>
None

>  <Chemical name>
ethyl 3,5-dimethyl-1H-pyrazole-4-carboxylate

>  <ClogP>
1,685

>  <logS>
-1,19

>  <HBD>
1

>  <HBA>
2

>  <TPSA>
54,98

>  <RotBonds>
3

$$$$

  Mrv1925 04172511382D          

 13 14  0  0  0  0            999 V2000
   -1.4087   -1.4124    0.0000 O   0  0  0  0  0  0  0  0  0  0  0  0
   -0.5837   -1.4124    0.0000 C   0  0  0  0  0  0  0  0  0  0  0  0
   -0.1712   -2.1269    0.0000 O   0  0  0  0  0  0  0  0  0  0  0  0
   -0.1712   -0.6979    0.0000 C   0  0  0  0  0  0  0  0  0  0  0  0
    0.6538   -0.6979    0.0000 C   0  0  0  0  0  0  0  0  0  0  0  0
    1.1387   -0.0305    0.0000 C   0  0  0  0  0  0  0  0  0  0  0  0
    1.9233   -0.2854    0.0000 C   0  0  0  0  0  0  0  0  0  0  0  0
    2.6378    0.1271    0.0000 C   0  0  0  0  0  0  0  0  0  0  0  0
    3.3523   -0.2854    0.0000 C   0  0  0  0  0  0  0  0  0  0  0  0
    3.3523   -1.1104    0.0000 C   0  0  0  0  0  0  0  0  0  0  0  0
    2.6378   -1.5229    0.0000 C   0  0  0  0  0  0  0  0  0  0  0  0
    1.9233   -1.1104    0.0000 C   0  0  0  0  0  0  0  0  0  0  0  0
    1.1387   -1.3654    0.0000 S   0  0  0  0  0  0  0  0  0  0  0  0
  1  2  2  0  0  0  0
  2  3  1  0  0  0  0
  2  4  1  0  0  0  0
  4  5  1  0  0  0  0
  5  6  2  0  0  0  0
  6  7  1  0  0  0  0
  7  8  2  0  0  0  0
  8  9  1  0  0  0  0
  9 10  2  0  0  0  0
 10 11  1  0  0  0  0
 11 12  2  0  0  0  0
  7 12  1  0  0  0  0
 12 13  1  0  0  0  0
  5 13  1  0  0  0  0
M  END
>  <Catalog ID>
Z1198265898

>  <Plate_ID>
2026997-X50-04

>  <Well>
E02

>  <V, µL>
50

>  <Conc, mM>
10

>  <Formula>
C10H8O2S

>  <MW>
192.2343

>  <Purity>
95

>  <PO>
5A-64168

>  <MW_salt>
0

>  <Stereochem.data>
Achiral

>  <Geometric.isomer>
None

>  <Chemical name>
2-(1-benzothiophen-2-yl)acetic acid

>  <ClogP>
2,444

>  <logS>
-2,76

>  <HBD>
1

>  <HBA>
2

>  <TPSA>
37,3

>  <RotBonds>
2

$$$$

  Mrv1925 04172511382D          

 10 10  0  0  0  0            999 V2000
   -0.8612    3.5893    0.0000 O   0  0  0  0  0  0  0  0  0  0  0  0
   -0.1467    3.1768    0.0000 C   0  0  0  0  0  0  0  0  0  0  0  0
    0.5678    3.5893    0.0000 O   0  0  0  0  0  0  0  0  0  0  0  0
   -0.1467    2.3518    0.0000 C   0  0  0  0  0  0  0  0  0  0  0  0
    0.5678    1.9393    0.0000 O   0  0  0  0  0  0  0  0  0  0  0  0
    0.5678    1.1143    0.0000 C   0  0  0  0  0  0  0  0  0  0  0  0
    1.2352    0.6294    0.0000 C   0  0  0  0  0  0  0  0  0  0  0  0
    0.9803   -0.1553    0.0000 C   0  0  0  0  0  0  0  0  0  0  0  0
    0.1553   -0.1553    0.0000 C   0  0  0  0  0  0  0  0  0  0  0  0
   -0.0997    0.6294    0.0000 C   0  0  0  0  0  0  0  0  0  0  0  0
  1  2  2  0  0  0  0
  2  3  1  0  0  0  0
  2  4  1  0  0  0  0
  4  5  1  0  0  0  0
  5  6  1  0  0  0  0
  6  7  1  0  0  0  0
  7  8  1  0  0  0  0
  8  9  1  0  0  0  0
  9 10  1  0  0  0  0
  6 10  1  0  0  0  0
M  END
>  <Catalog ID>
Z316258762

>  <Plate_ID>
2026997-X50-04

>  <Well>
F02

>  <V, µL>
50

>  <Conc, mM>
10

>  <Formula>
C7H12O3

>  <MW>
144.1684

>  <Purity>
95

>  <PO>
5A-64168

>  <MW_salt>
0

>  <Stereochem.data>
Achiral

>  <Geometric.isomer>
None

>  <Chemical name>
2-(cyclopentyloxy)acetic acid

>  <ClogP>
1,081

>  <logS>
-0,63

>  <HBD>
1

>  <HBA>
3

>  <TPSA>
46,53

>  <RotBonds>
3

$$$$

  Mrv1925 04172511382D          

 14 14  0  0  0  0            999 V2000
    0.0000   -2.4750    0.0000 O   0  0  0  0  0  0  0  0  0  0  0  0
    0.7145   -2.8875    0.0000 C   0  0  0  0  0  0  0  0  0  0  0  0
    0.7145   -3.7125    0.0000 O   0  0  0  0  0  0  0  0  0  0  0  0
    1.4289   -2.4750    0.0000 C   0  0  0  0  0  0  0  0  0  0  0  0
    2.1434   -2.8875    0.0000 N   0  0  0  0  0  0  0  0  0  0  0  0
    2.8579   -2.4750    0.0000 C   0  0  0  0  0  0  0  0  0  0  0  0
    2.8579   -1.6500    0.0000 O   0  0  0  0  0  0  0  0  0  0  0  0
    3.5724   -2.8875    0.0000 C   0  0  0  0  0  0  0  0  0  0  0  0
    4.2868   -2.4750    0.0000 C   0  0  0  0  0  0  0  0  0  0  0  0
    5.0013   -2.8875    0.0000 C   0  0  0  0  0  0  0  0  0  0  0  0
    5.0013   -3.7125    0.0000 C   0  0  0  0  0  0  0  0  0  0  0  0
    4.2868   -4.1250    0.0000 C   0  0  0  0  0  0  0  0  0  0  0  0
    4.2868   -4.9500    0.0000 O   0  0  0  0  0  0  0  0  0  0  0  0
    3.5724   -3.7125    0.0000 C   0  0  0  0  0  0  0  0  0  0  0  0
  1  2  2  0  0  0  0
  2  3  1  0  0  0  0
  2  4  1  0  0  0  0
  4  5  1  0  0  0  0
  5  6  1  0  0  0  0
  6  7  2  0  0  0  0
  6  8  1  0  0  0  0
  8  9  1  0  0  0  0
  9 10  2  0  0  0  0
 10 11  1  0  0  0  0
 11 12  2  0  0  0  0
 12 13  1  0  0  0  0
 12 14  1  0  0  0  0
  8 14  2  0  0  0  0
M  END
>  <Catalog ID>
Z239129930

>  <Plate_ID>
2026997-X50-04

>  <Well>
G02

>  <V, µL>
50

>  <Conc, mM>
10

>  <Formula>
C9H9NO4

>  <MW>
195.1721

>  <Purity>
100

>  <PO>
5A-64168

>  <MW_salt>
0

>  <Stereochem.data>
Achiral

>  <Geometric.isomer>
None

>  <Chemical name>
2-[(3-hydroxyphenyl)formamido]acetic acid

>  <ClogP>
0,326

>  <logS>
-1,45

>  <HBD>
3

>  <HBA>
4

>  <TPSA>
86,63

>  <RotBonds>
3

$$$$

  Mrv1925 04172511382D          

 12 13  0  0  0  0            999 V2000
    4.0668    2.3479    0.0000 N   0  0  0  0  0  0  0  0  0  0  0  0
    3.3523    1.9354    0.0000 C   0  0  0  0  0  0  0  0  0  0  0  0
    3.3523    1.1104    0.0000 C   0  0  0  0  0  0  0  0  0  0  0  0
    2.6378    0.6979    0.0000 C   0  0  0  0  0  0  0  0  0  0  0  0
    1.9233    1.1104    0.0000 C   0  0  0  0  0  0  0  0  0  0  0  0
    1.1387    0.8555    0.0000 C   0  0  0  0  0  0  0  0  0  0  0  0
    0.6538    1.5229    0.0000 C   0  0  0  0  0  0  0  0  0  0  0  0
    1.1387    2.1904    0.0000 S   0  0  0  0  0  0  0  0  0  0  0  0
    0.4243    2.6029    0.0000 O   0  0  0  0  0  0  0  0  0  0  0  0
    1.4743    2.9441    0.0000 O   0  0  0  0  0  0  0  0  0  0  0  0
    1.9233    1.9354    0.0000 C   0  0  0  0  0  0  0  0  0  0  0  0
    2.6378    2.3479    0.0000 C   0  0  0  0  0  0  0  0  0  0  0  0
  1  2  1  0  0  0  0
  2  3  2  0  0  0  0
  3  4  1  0  0  0  0
  4  5  2  0  0  0  0
  5  6  1  0  0  0  0
  6  7  2  0  0  0  0
  7  8  1  0  0  0  0
  8  9  2  0  0  0  0
  8 10  2  0  0  0  0
  8 11  1  0  0  0  0
  5 11  1  0  0  0  0
 11 12  2  0  0  0  0
  2 12  1  0  0  0  0
M  END
>  <Catalog ID>
Z445135574

>  <Plate_ID>
2026997-X50-04

>  <Well>
H02

>  <V, µL>
50

>  <Conc, mM>
10

>  <Formula>
C8H7NO2S

>  <MW>
181.2117

>  <Purity>
90.99

>  <PO>
5A-64168

>  <MW_salt>
0

>  <Stereochem.data>
Achiral

>  <Geometric.isomer>
None

>  <Chemical name>
6-amino-1lambda6-benzothiophene-1,1-dione

>  <ClogP>
0,505

>  <logS>
-1,95

>  <HBD>
1

>  <HBA>
3

>  <TPSA>
60,16

>  <RotBonds>
0

$$$$

  Mrv1925 04172511382D          

 12 13  0  0  0  0            999 V2000
    0.7145   -2.8875    0.0000 C   0  0  0  0  0  0  0  0  0  0  0  0
    0.0000   -2.4750    0.0000 C   0  0  0  0  0  0  0  0  0  0  0  0
    0.0000   -1.6500    0.0000 C   0  0  0  0  0  0  0  0  0  0  0  0
    0.7145   -1.2375    0.0000 N   0  0  0  0  0  0  0  0  0  0  0  0
    1.4289   -1.6500    0.0000 C   0  0  0  0  0  0  0  0  0  0  0  0
    1.4289   -2.4750    0.0000 C   0  0  0  0  0  0  0  0  0  0  0  0
    0.7145   -0.4125    0.0000 C   0  0  0  0  0  0  0  0  0  0  0  0
    0.0000    0.0000    0.0000 C   0  0  0  0  0  0  0  0  0  0  0  0
    0.0000    0.8250    0.0000 C   0  0  0  0  0  0  0  0  0  0  0  0
    0.7145    1.2375    0.0000 N   0  0  0  0  0  0  0  0  0  0  0  0
    1.4289    0.8250    0.0000 C   0  0  0  0  0  0  0  0  0  0  0  0
    1.4289   -0.0000    0.0000 C   0  0  0  0  0  0  0  0  0  0  0  0
  1  2  1  0  0  0  0
  2  3  1  0  0  0  0
  3  4  1  0  0  0  0
  4  5  1  0  0  0  0
  5  6  1  0  0  0  0
  1  6  1  0  0  0  0
  4  7  1  0  0  0  0
  7  8  1  0  0  0  0
  8  9  1  0  0  0  0
  9 10  1  0  0  0  0
 10 11  1  0  0  0  0
 11 12  1  0  0  0  0
  7 12  1  0  0  0  0
M  END
>  <Catalog ID>
Z317268638

>  <Plate_ID>
2026997-X50-04

>  <Well>
A03

>  <V, µL>
50

>  <Conc, mM>
10

>  <Formula>
C10H20N2

>  <MW>
168.2792

>  <Purity>
100

>  <PO>
5A-64168

>  <MW_salt>
0

>  <Stereochem.data>
Achiral

>  <Geometric.isomer>
None

>  <Chemical name>
1,4'-bipiperidine

>  <ClogP>
0,733

>  <logS>
0

>  <HBD>
1

>  <HBA>
2

>  <TPSA>
15,27

>  <RotBonds>
1

$$$$

  Mrv1925 04172511382D          

 11 11  0  0  0  0            999 V2000
    0.7145    2.0625    0.0000 N   0  0  0  0  0  0  0  0  0  0  0  0
    0.7145    1.2375    0.0000 C   0  0  0  0  0  0  0  0  0  0  0  0
    1.4289    0.8250    0.0000 C   0  0  0  0  0  0  0  0  0  0  0  0
    1.4289   -0.0000    0.0000 C   0  0  0  0  0  0  0  0  0  0  0  0
    0.7145   -0.4125    0.0000 C   0  0  0  0  0  0  0  0  0  0  0  0
    0.0000    0.0000    0.0000 C   0  0  0  0  0  0  0  0  0  0  0  0
    0.0000    0.8250    0.0000 C   0  0  0  0  0  0  0  0  0  0  0  0
   -0.7145    1.2375    0.0000 O   0  0  0  0  0  0  0  0  0  0  0  0
    0.7145   -1.2375    0.0000 C   0  0  0  0  0  0  0  0  0  0  0  0
    1.4289   -1.6500    0.0000 O   0  0  0  0  0  0  0  0  0  0  0  0
   -0.0000   -1.6500    0.0000 O   0  0  0  0  0  0  0  0  0  0  0  0
  1  2  1  0  0  0  0
  2  3  1  0  0  0  0
  3  4  2  0  0  0  0
  4  5  1  0  0  0  0
  5  6  2  0  0  0  0
  6  7  1  0  0  0  0
  2  7  2  0  0  0  0
  7  8  1  0  0  0  0
  5  9  1  0  0  0  0
  9 10  2  0  0  0  0
  9 11  1  0  0  0  0
M  END
>  <Catalog ID>
Z431554234

>  <Plate_ID>
2026997-X50-04

>  <Well>
B03

>  <V, µL>
50

>  <Conc, mM>
10

>  <Formula>
C7H7NO3

>  <MW>
153.1354

>  <Purity>
97.04

>  <PO>
5A-64168

>  <MW_salt>
0

>  <Stereochem.data>
Achiral

>  <Geometric.isomer>
None

>  <Chemical name>
4-amino-3-hydroxybenzoic acid

>  <ClogP>
0,796

>  <logS>
-0,95

>  <HBD>
3

>  <HBA>
4

>  <TPSA>
83,55

>  <RotBonds>
1

$$$$

  Mrv1925 04172511382D          

 10  8  0  0  0  0            999 V2000
    0.0000    0.0000    0.0000 Cl  0  0  0  0  0  0  0  0  0  0  0  0
    2.0036    0.0000    0.0000 Cl  0  0  0  0  0  0  0  0  0  0  0  0
   -0.5359   -1.6500    0.0000 N   0  0  0  0  0  0  0  0  0  0  0  0
   -0.5359   -2.4750    0.0000 C   0  0  0  0  0  0  0  0  0  0  0  0
    0.1786   -2.8875    0.0000 C   0  0  0  0  0  0  0  0  0  0  0  0
    0.1786   -3.7125    0.0000 C   0  0  0  0  0  0  0  0  0  0  0  0
    0.8461   -4.1974    0.0000 C   0  0  0  0  0  0  0  0  0  0  0  0
    0.5911   -4.9820    0.0000 N   0  0  0  0  0  0  0  0  0  0  0  0
   -0.2339   -4.9820    0.0000 C   0  0  0  0  0  0  0  0  0  0  0  0
   -0.4888   -4.1974    0.0000 N   0  0  0  0  0  0  0  0  0  0  0  0
  3  4  1  0  0  0  0
  4  5  1  0  0  0  0
  5  6  1  0  0  0  0
  6  7  2  0  0  0  0
  7  8  1  0  0  0  0
  8  9  1  0  0  0  0
  9 10  2  0  0  0  0
  6 10  1  0  0  0  0
M  END
>  <Catalog ID>
Z1267773750

>  <Plate_ID>
2026997-X50-04

>  <Well>
C03

>  <V, µL>
50

>  <Conc, mM>
10

>  <Formula>
C5H11Cl2N3

>  <MW>
184.0669

>  <Purity>
95

>  <PO>
5A-64168

>  <Salt smiles>
Cl

>  <Salt_name>
Hydrochloric Acid

>  <Salt_ratio>
2

>  <MW_salt>
36.4609

>  <Stereochem.data>
Achiral

>  <Geometric.isomer>
None

>  <Chemical name>
2-(1H-imidazol-4-yl)ethan-1-amine dihydrochloride

>  <ClogP>
-0,968

>  <logS>
-1,08

>  <HBD>
2

>  <HBA>
2

>  <TPSA>
54,7

>  <RotBonds>
2

$$$$

  Mrv1925 04172511382D          

  9  9  0  0  0  0            999 V2000
    0.7145    2.0625    0.0000 O   0  0  0  0  0  0  0  0  0  0  0  0
    0.7145    1.2375    0.0000 C   0  0  0  0  0  0  0  0  0  0  0  0
    1.4289    0.8250    0.0000 C   0  0  0  0  0  0  0  0  0  0  0  0
    2.1434    1.2375    0.0000 F   0  0  0  0  0  0  0  0  0  0  0  0
    1.4289   -0.0000    0.0000 C   0  0  0  0  0  0  0  0  0  0  0  0
    0.7145   -0.4125    0.0000 C   0  0  0  0  0  0  0  0  0  0  0  0
    0.0000    0.0000    0.0000 C   0  0  0  0  0  0  0  0  0  0  0  0
    0.0000    0.8250    0.0000 C   0  0  0  0  0  0  0  0  0  0  0  0
   -0.7145    1.2375    0.0000 F   0  0  0  0  0  0  0  0  0  0  0  0
  1  2  1  0  0  0  0
  2  3  1  0  0  0  0
  3  4  1  0  0  0  0
  3  5  2  0  0  0  0
  5  6  1  0  0  0  0
  6  7  2  0  0  0  0
  7  8  1  0  0  0  0
  2  8  2  0  0  0  0
  8  9  1  0  0  0  0
M  END
>  <Catalog ID>
Z147646794

>  <Plate_ID>
2026997-X50-04

>  <Well>
D03

>  <V, µL>
50

>  <Conc, mM>
10

>  <Formula>
C6H4F2O

>  <MW>
130.0922

>  <Purity>
100

>  <PO>
5A-64168

>  <MW_salt>
0

>  <Stereochem.data>
Achiral

>  <Geometric.isomer>
None

>  <Chemical name>
2,6-difluorophenol

>  <ClogP>
1,762

>  <logS>
-1,55

>  <HBD>
1

>  <HBA>
1

>  <TPSA>
20,23

>  <RotBonds>
0

$$$$

  Mrv1925 04172511382D          

 13 14  0  0  0  0            999 V2000
    1.9709    0.2323    0.0000 O   0  0  0  0  0  0  0  0  0  0  0  0
    1.2564   -0.1802    0.0000 C   0  0  0  0  0  0  0  0  0  0  0  0
    0.5420    0.2323    0.0000 O   0  0  0  0  0  0  0  0  0  0  0  0
    1.2564   -1.0052    0.0000 C   0  0  0  0  0  0  0  0  0  0  0  0
    1.9239   -1.4901    0.0000 S   0  0  0  0  0  0  0  0  0  0  0  0
    1.6689   -2.2748    0.0000 C   0  0  0  0  0  0  0  0  0  0  0  0
    0.8439   -2.2748    0.0000 C   0  0  0  0  0  0  0  0  0  0  0  0
    0.5890   -1.4901    0.0000 C   0  0  0  0  0  0  0  0  0  0  0  0
   -0.1956   -1.2352    0.0000 N   0  0  0  0  0  0  0  0  0  0  0  0
   -0.8631   -1.7201    0.0000 C   0  0  0  0  0  0  0  0  0  0  0  0
   -1.5305   -1.2352    0.0000 C   0  0  0  0  0  0  0  0  0  0  0  0
   -1.2756   -0.4506    0.0000 C   0  0  0  0  0  0  0  0  0  0  0  0
   -0.4506   -0.4506    0.0000 C   0  0  0  0  0  0  0  0  0  0  0  0
  1  2  2  0  0  0  0
  2  3  1  0  0  0  0
  2  4  1  0  0  0  0
  4  5  1  0  0  0  0
  5  6  1  0  0  0  0
  6  7  2  0  0  0  0
  7  8  1  0  0  0  0
  4  8  2  0  0  0  0
  8  9  1  0  0  0  0
  9 10  1  0  0  0  0
 10 11  2  0  0  0  0
 11 12  1  0  0  0  0
 12 13  2  0  0  0  0
  9 13  1  0  0  0  0
M  END
>  <Catalog ID>
Z227832752

>  <Plate_ID>
2026997-X50-04

>  <Well>
E03

>  <V, µL>
50

>  <Conc, mM>
10

>  <Formula>
C9H7NO2S

>  <MW>
193.2224

>  <Purity>
97.66

>  <PO>
5A-64168

>  <MW_salt>
0

>  <Stereochem.data>
Achiral

>  <Geometric.isomer>
None

>  <Chemical name>
3-(1H-pyrrol-1-yl)thiophene-2-carboxylic acid

>  <ClogP>
2,909

>  <logS>
-1,84

>  <HBD>
1

>  <HBA>
2

>  <TPSA>
42,23

>  <RotBonds>
2

$$$$

  Mrv1925 04172511382D          

  9  9  0  0  0  0            999 V2000
    0.0000    2.4750    0.0000 O   0  0  0  0  0  0  0  0  0  0  0  0
    0.7145    2.0625    0.0000 C   0  0  0  0  0  0  0  0  0  0  0  0
    0.7145    1.2375    0.0000 C   0  0  0  0  0  0  0  0  0  0  0  0
    1.4289    0.8250    0.0000 C   0  0  0  0  0  0  0  0  0  0  0  0
    1.4289   -0.0000    0.0000 C   0  0  0  0  0  0  0  0  0  0  0  0
    0.7145   -0.4125    0.0000 C   0  0  0  0  0  0  0  0  0  0  0  0
    0.0000    0.0000    0.0000 C   0  0  0  0  0  0  0  0  0  0  0  0
    0.0000    0.8250    0.0000 C   0  0  0  0  0  0  0  0  0  0  0  0
   -0.7145    1.2375    0.0000 Br  0  0  0  0  0  0  0  0  0  0  0  0
  1  2  1  0  0  0  0
  2  3  1  0  0  0  0
  3  4  1  0  0  0  0
  4  5  2  0  0  0  0
  5  6  1  0  0  0  0
  6  7  2  0  0  0  0
  7  8  1  0  0  0  0
  3  8  2  0  0  0  0
  8  9  1  0  0  0  0
M  END
>  <Catalog ID>
Z335245004

>  <Plate_ID>
2026997-X50-04

>  <Well>
F03

>  <V, µL>
50

>  <Conc, mM>
10

>  <Formula>
C7H7BrO

>  <MW>
187.0339

>  <Purity>
100

>  <PO>
5A-64168

>  <MW_salt>
0

>  <Stereochem.data>
Achiral

>  <Geometric.isomer>
None

>  <Chemical name>
(2-bromophenyl)methanol

>  <ClogP>
1,967

>  <logS>
-2,07

>  <HBD>
1

>  <HBA>
1

>  <TPSA>
20,23

>  <RotBonds>
1

$$$$

  Mrv1925 04172511382D          

 11 11  0  0  0  0            999 V2000
    0.0000    2.4750    0.0000 O   0  0  0  0  0  0  0  0  0  0  0  0
    0.7145    2.0625    0.0000 C   0  0  0  0  0  0  0  0  0  0  0  0
    1.4289    2.4750    0.0000 O   0  0  0  0  0  0  0  0  0  0  0  0
    0.7145    1.2375    0.0000 C   0  0  0  0  0  0  0  0  0  0  0  0
    1.4289    0.8250    0.0000 C   0  0  0  0  0  0  0  0  0  0  0  0
    1.4289   -0.0000    0.0000 C   0  0  0  0  0  0  0  0  0  0  0  0
    0.7145   -0.4125    0.0000 C   0  0  0  0  0  0  0  0  0  0  0  0
    0.7145   -1.2375    0.0000 O   0  0  0  0  0  0  0  0  0  0  0  0
    0.0000    0.0000    0.0000 C   0  0  0  0  0  0  0  0  0  0  0  0
   -0.7145   -0.4125    0.0000 F   0  0  0  0  0  0  0  0  0  0  0  0
    0.0000    0.8250    0.0000 C   0  0  0  0  0  0  0  0  0  0  0  0
  1  2  2  0  0  0  0
  2  3  1  0  0  0  0
  2  4  1  0  0  0  0
  4  5  1  0  0  0  0
  5  6  2  0  0  0  0
  6  7  1  0  0  0  0
  7  8  1  0  0  0  0
  7  9  2  0  0  0  0
  9 10  1  0  0  0  0
  9 11  1  0  0  0  0
  4 11  2  0  0  0  0
M  END
>  <Catalog ID>
Z57073754

>  <Plate_ID>
2026997-X50-04

>  <Well>
G03

>  <V, µL>
50

>  <Conc, mM>
10

>  <Formula>
C7H5FO3

>  <MW>
156.1112

>  <Purity>
100

>  <PO>
5A-64168

>  <MW_salt>
0

>  <Stereochem.data>
Achiral

>  <Geometric.isomer>
None

>  <Chemical name>
3-fluoro-4-hydroxybenzoic acid

>  <ClogP>
1,633

>  <logS>
-1,41

>  <HBD>
2

>  <HBA>
3

>  <TPSA>
57,53

>  <RotBonds>
1

$$$$

  Mrv1925 04172511382D          

 10 11  0  0  0  0            999 V2000
    4.0668    2.3479    0.0000 O   0  0  0  0  0  0  0  0  0  0  0  0
    3.3523    1.9354    0.0000 C   0  0  0  0  0  0  0  0  0  0  0  0
    3.3523    1.1104    0.0000 C   0  0  0  0  0  0  0  0  0  0  0  0
    2.6378    0.6979    0.0000 C   0  0  0  0  0  0  0  0  0  0  0  0
    1.9233    1.1104    0.0000 C   0  0  0  0  0  0  0  0  0  0  0  0
    1.1387    0.8555    0.0000 N   0  0  0  0  0  0  0  0  0  0  0  0
    0.6538    1.5229    0.0000 C   0  0  0  0  0  0  0  0  0  0  0  0
    1.1387    2.1904    0.0000 C   0  0  0  0  0  0  0  0  0  0  0  0
    1.9233    1.9354    0.0000 C   0  0  0  0  0  0  0  0  0  0  0  0
    2.6378    2.3479    0.0000 C   0  0  0  0  0  0  0  0  0  0  0  0
  1  2  1  0  0  0  0
  2  3  1  0  0  0  0
  3  4  2  0  0  0  0
  4  5  1  0  0  0  0
  5  6  1  0  0  0  0
  6  7  1  0  0  0  0
  7  8  2  0  0  0  0
  8  9  1  0  0  0  0
  5  9  2  0  0  0  0
  9 10  1  0  0  0  0
  2 10  2  0  0  0  0
M  END
>  <Catalog ID>
Z1203162319

>  <Plate_ID>
2026997-X50-04

>  <Well>
H03

>  <V, µL>
50

>  <Conc, mM>
10

>  <Formula>
C8H7NO

>  <MW>
133.1473

>  <Purity>
100

>  <PO>
5A-64168

>  <MW_salt>
0

>  <Stereochem.data>
Achiral

>  <Geometric.isomer>
None

>  <Chemical name>
1H-indol-5-ol

>  <ClogP>
1,465

>  <logS>
-1,85

>  <HBD>
2

>  <HBA>
1

>  <TPSA>
36,02

>  <RotBonds>
0

$$$$

  Mrv1925 04172511382D          

 11 12  0  0  0  0            999 V2000
   -0.1712   -0.6979    0.0000 O   0  0  0  0  0  0  0  0  0  0  0  0
    0.6538   -0.6979    0.0000 C   0  0  0  0  0  0  0  0  0  0  0  0
    1.1387   -0.0305    0.0000 N   0  0  0  0  0  0  0  0  0  0  0  0
    1.9233   -0.2854    0.0000 C   0  0  0  0  0  0  0  0  0  0  0  0
    2.6378    0.1271    0.0000 C   0  0  0  0  0  0  0  0  0  0  0  0
    3.3523   -0.2854    0.0000 C   0  0  0  0  0  0  0  0  0  0  0  0
    4.0668    0.1271    0.0000 Cl  0  0  0  0  0  0  0  0  0  0  0  0
    3.3523   -1.1104    0.0000 C   0  0  0  0  0  0  0  0  0  0  0  0
    2.6378   -1.5229    0.0000 C   0  0  0  0  0  0  0  0  0  0  0  0
    1.9233   -1.1104    0.0000 C   0  0  0  0  0  0  0  0  0  0  0  0
    1.1387   -1.3654    0.0000 O   0  0  0  0  0  0  0  0  0  0  0  0
  1  2  2  0  0  0  0
  2  3  1  0  0  0  0
  3  4  1  0  0  0  0
  4  5  1  0  0  0  0
  5  6  2  0  0  0  0
  6  7  1  0  0  0  0
  6  8  1  0  0  0  0
  8  9  2  0  0  0  0
  9 10  1  0  0  0  0
  4 10  2  0  0  0  0
 10 11  1  0  0  0  0
  2 11  1  0  0  0  0
M  END
>  <Catalog ID>
Z57183224

>  <Plate_ID>
2026997-X50-04

>  <Well>
A04

>  <V, µL>
50

>  <Conc, mM>
10

>  <Formula>
C7H4ClNO2

>  <MW>
169.5652

>  <Purity>
100

>  <PO>
5A-64168

>  <MW_salt>
0

>  <Stereochem.data>
Achiral

>  <Geometric.isomer>
None

>  <Chemical name>
5-chloro-2,3-dihydro-1,3-benzoxazol-2-one

>  <ClogP>
1,871

>  <logS>
-2,87

>  <HBD>
1

>  <HBA>
2

>  <TPSA>
38,33

>  <RotBonds>
0

$$$$

  Mrv1925 04172511382D          

 11 12  0  0  0  0            999 V2000
    1.4289   -2.4750    0.0000 N   0  0  0  0  0  0  0  0  0  0  0  0
    1.4289   -1.6500    0.0000 C   0  0  0  0  0  0  0  0  0  0  0  0
    0.7145   -1.2375    0.0000 N   0  0  0  0  0  0  0  0  0  0  0  0
    0.7145   -0.4125    0.0000 C   0  0  0  0  0  0  0  0  0  0  0  0
    1.4289    0.0000    0.0000 C   0  0  0  0  0  0  0  0  0  0  0  0
    2.1434   -0.4125    0.0000 C   0  0  0  0  0  0  0  0  0  0  0  0
    2.8579    0.0000    0.0000 C   0  0  0  0  0  0  0  0  0  0  0  0
    3.5724   -0.4125    0.0000 C   0  0  0  0  0  0  0  0  0  0  0  0
    3.5724   -1.2375    0.0000 C   0  0  0  0  0  0  0  0  0  0  0  0
    2.8579   -1.6500    0.0000 C   0  0  0  0  0  0  0  0  0  0  0  0
    2.1434   -1.2375    0.0000 C   0  0  0  0  0  0  0  0  0  0  0  0
  1  2  1  0  0  0  0
  2  3  1  0  0  0  0
  3  4  2  0  0  0  0
  4  5  1  0  0  0  0
  5  6  2  0  0  0  0
  6  7  1  0  0  0  0
  7  8  2  0  0  0  0
  8  9  1  0  0  0  0
  9 10  2  0  0  0  0
 10 11  1  0  0  0  0
  2 11  2  0  0  0  0
  6 11  1  0  0  0  0
M  END
>  <Catalog ID>
Z1203162487

>  <Plate_ID>
2026997-X50-04

>  <Well>
B04

>  <V, µL>
50

>  <Conc, mM>
10

>  <Formula>
C9H8N2

>  <MW>
144.1732

>  <Purity>
100

>  <PO>
5A-64168

>  <MW_salt>
0

>  <Stereochem.data>
Achiral

>  <Geometric.isomer>
None

>  <Chemical name>
isoquinolin-1-amine

>  <ClogP>
1,492

>  <logS>
-2,5

>  <HBD>
1

>  <HBA>
2

>  <TPSA>
38,91

>  <RotBonds>
0

$$$$

  Mrv1925 04172511382D          

 11 11  0  0  0  0            999 V2000
    0.7145    2.0625    0.0000 N   0  0  0  0  0  0  0  0  0  0  0  0
    0.7145    1.2375    0.0000 C   0  0  0  0  0  0  0  0  0  0  0  0
    1.4289    0.8250    0.0000 C   0  0  0  0  0  0  0  0  0  0  0  0
    1.4289   -0.0000    0.0000 C   0  0  0  0  0  0  0  0  0  0  0  0
    0.7145   -0.4125    0.0000 C   0  0  0  0  0  0  0  0  0  0  0  0
    0.0000    0.0000    0.0000 C   0  0  0  0  0  0  0  0  0  0  0  0
   -0.7145   -0.4125    0.0000 F   0  0  0  0  0  0  0  0  0  0  0  0
    0.0000    0.8250    0.0000 C   0  0  0  0  0  0  0  0  0  0  0  0
   -0.7145    1.2375    0.0000 C   0  0  0  0  0  0  0  0  0  0  0  0
   -1.4289    0.8250    0.0000 O   0  0  0  0  0  0  0  0  0  0  0  0
   -0.7145    2.0625    0.0000 O   0  0  0  0  0  0  0  0  0  0  0  0
  1  2  1  0  0  0  0
  2  3  1  0  0  0  0
  3  4  2  0  0  0  0
  4  5  1  0  0  0  0
  5  6  2  0  0  0  0
  6  7  1  0  0  0  0
  6  8  1  0  0  0  0
  2  8  2  0  0  0  0
  8  9  1  0  0  0  0
  9 10  2  0  0  0  0
  9 11  1  0  0  0  0
M  END
>  <Catalog ID>
Z424764636

>  <Plate_ID>
2026997-X50-04

>  <Well>
C04

>  <V, µL>
50

>  <Conc, mM>
10

>  <Formula>
C7H6FNO2

>  <MW>
155.1264

>  <Purity>
100

>  <PO>
5A-64168

>  <MW_salt>
0

>  <Stereochem.data>
Achiral

>  <Geometric.isomer>
None

>  <Chemical name>
2-amino-6-fluorobenzoic acid

>  <ClogP>
1,118

>  <logS>
-1,63

>  <HBD>
2

>  <HBA>
3

>  <TPSA>
63,32

>  <RotBonds>
1

$$$$

  Mrv1925 04172511382D          

  9  9  0  0  0  0            999 V2000
    0.5678    2.7643    0.0000 F   0  0  0  0  0  0  0  0  0  0  0  0
    0.5678    1.9393    0.0000 C   0  0  0  0  0  0  0  0  0  0  0  0
   -0.2572    1.9393    0.0000 F   0  0  0  0  0  0  0  0  0  0  0  0
    1.3928    1.9393    0.0000 F   0  0  0  0  0  0  0  0  0  0  0  0
    0.5678    1.1143    0.0000 C   0  0  0  0  0  0  0  0  0  0  0  0
    1.2352    0.6294    0.0000 C   0  0  0  0  0  0  0  0  0  0  0  0
    0.9803   -0.1553    0.0000 N   0  0  0  0  0  0  0  0  0  0  0  0
    0.1553   -0.1553    0.0000 C   0  0  0  0  0  0  0  0  0  0  0  0
   -0.0997    0.6294    0.0000 N   0  0  0  0  0  0  0  0  0  0  0  0
  1  2  1  0  0  0  0
  2  3  1  0  0  0  0
  2  4  1  0  0  0  0
  2  5  1  0  0  0  0
  5  6  2  0  0  0  0
  6  7  1  0  0  0  0
  7  8  2  0  0  0  0
  8  9  1  0  0  0  0
  5  9  1  0  0  0  0
M  END
>  <Catalog ID>
Z440623534

>  <Plate_ID>
2026997-X50-04

>  <Well>
D04

>  <V, µL>
50

>  <Conc, mM>
10

>  <Formula>
C4H3F3N2

>  <MW>
136.0752

>  <Purity>
100

>  <PO>
5A-64168

>  <MW_salt>
0

>  <Stereochem.data>
Achiral

>  <Geometric.isomer>
None

>  <Chemical name>
5-(trifluoromethyl)-1H-imidazole

>  <ClogP>
1,035

>  <logS>
-1,62

>  <HBD>
1

>  <HBA>
1

>  <TPSA>
28,68

>  <RotBonds>
1

$$$$

  Mrv1925 04172511382D          

 15 16  0  0  0  0            999 V2000
    0.0768   -2.3215    0.0000 C   0  0  0  0  0  0  0  0  0  0  0  0
    0.8838   -2.1500    0.0000 C   0  0  0  0  0  0  0  0  0  0  0  0
    1.4358   -2.7631    0.0000 C   0  0  0  0  0  0  0  0  0  0  0  0
    1.1387   -1.3654    0.0000 N   0  0  0  0  0  0  0  0  0  0  0  0
    0.6538   -0.6979    0.0000 C   0  0  0  0  0  0  0  0  0  0  0  0
    1.1387   -0.0305    0.0000 N   0  0  0  0  0  0  0  0  0  0  0  0
    1.9233   -0.2854    0.0000 C   0  0  0  0  0  0  0  0  0  0  0  0
    2.6378    0.1271    0.0000 C   0  0  0  0  0  0  0  0  0  0  0  0
    3.3523   -0.2854    0.0000 C   0  0  0  0  0  0  0  0  0  0  0  0
    3.3523   -1.1104    0.0000 C   0  0  0  0  0  0  0  0  0  0  0  0
    2.6378   -1.5229    0.0000 C   0  0  0  0  0  0  0  0  0  0  0  0
    1.9233   -1.1104    0.0000 C   0  0  0  0  0  0  0  0  0  0  0  0
    4.0668    0.1271    0.0000 C   0  0  0  0  0  0  0  0  0  0  0  0
    4.0668    0.9521    0.0000 O   0  0  0  0  0  0  0  0  0  0  0  0
    4.7812   -0.2854    0.0000 O   0  0  0  0  0  0  0  0  0  0  0  0
  1  2  1  0  0  0  0
  2  3  1  0  0  0  0
  2  4  1  0  0  0  0
  4  5  1  0  0  0  0
  5  6  2  0  0  0  0
  6  7  1  0  0  0  0
  7  8  2  0  0  0  0
  8  9  1  0  0  0  0
  9 10  2  0  0  0  0
 10 11  1  0  0  0  0
 11 12  2  0  0  0  0
  7 12  1  0  0  0  0
  4 12  1  0  0  0  0
  9 13  1  0  0  0  0
 13 14  2  0  0  0  0
 13 15  1  0  0  0  0
M  END
>  <Catalog ID>
Z431983770

>  <Plate_ID>
2026997-X50-04

>  <Well>
E04

>  <V, µL>
50

>  <Conc, mM>
10

>  <Formula>
C11H12N2O2

>  <MW>
204.2252

>  <Purity>
100

>  <PO>
5A-64168

>  <MW_salt>
0

>  <Stereochem.data>
Achiral

>  <Geometric.isomer>
None

>  <Chemical name>
1-(propan-2-yl)-1H-1,3-benzodiazole-5-carboxylic acid

>  <ClogP>
2,437

>  <logS>
-1,89

>  <HBD>
1

>  <HBA>
3

>  <TPSA>
55,12

>  <RotBonds>
2

$$$$

  Mrv1925 04172511382D          

 15 16  0  0  0  0            999 V2000
    1.4289    0.0000    0.0000 O   0  0  0  0  0  0  0  0  0  0  0  0
    2.1434   -0.4125    0.0000 C   0  0  0  0  0  0  0  0  0  0  0  0
    2.1434   -1.2375    0.0000 C   0  0  0  0  0  0  0  0  0  0  0  0
    2.8579   -1.6500    0.0000 C   0  0  0  0  0  0  0  0  0  0  0  0
    2.8579   -2.4750    0.0000 C   0  0  0  0  0  0  0  0  0  0  0  0
    2.1434   -2.8875    0.0000 N   0  0  0  0  0  0  0  0  0  0  0  0
    1.4289   -2.4750    0.0000 C   0  0  0  0  0  0  0  0  0  0  0  0
    1.4289   -1.6500    0.0000 C   0  0  0  0  0  0  0  0  0  0  0  0
    2.8579    0.0000    0.0000 C   0  0  0  0  0  0  0  0  0  0  0  0
    2.8579    0.8250    0.0000 C   0  0  0  0  0  0  0  0  0  0  0  0
    3.5724    1.2375    0.0000 C   0  0  0  0  0  0  0  0  0  0  0  0
    4.2868    0.8250    0.0000 C   0  0  0  0  0  0  0  0  0  0  0  0
    5.0013    1.2375    0.0000 F   0  0  0  0  0  0  0  0  0  0  0  0
    4.2868    0.0000    0.0000 C   0  0  0  0  0  0  0  0  0  0  0  0
    3.5724   -0.4125    0.0000 C   0  0  0  0  0  0  0  0  0  0  0  0
  1  2  2  0  0  0  0
  2  3  1  0  0  0  0
  3  4  1  0  0  0  0
  4  5  2  0  0  0  0
  5  6  1  0  0  0  0
  6  7  2  0  0  0  0
  7  8  1  0  0  0  0
  3  8  2  0  0  0  0
  2  9  1  0  0  0  0
  9 10  1  0  0  0  0
 10 11  2  0  0  0  0
 11 12  1  0  0  0  0
 12 13  1  0  0  0  0
 12 14  2  0  0  0  0
 14 15  1  0  0  0  0
  9 15  2  0  0  0  0
M  END
>  <Catalog ID>
Z385412938

>  <Plate_ID>
2026997-X50-04

>  <Well>
F04

>  <V, µL>
50

>  <Conc, mM>
10

>  <Formula>
C12H8FNO

>  <MW>
201.1964

>  <Purity>
100

>  <PO>
5A-64168

>  <MW_salt>
0

>  <Stereochem.data>
Achiral

>  <Geometric.isomer>
None

>  <Chemical name>
4-(4-fluorobenzoyl)pyridine

>  <ClogP>
2,248

>  <logS>
-2,91

>  <HBD>
0

>  <HBA>
2

>  <TPSA>
29,96

>  <RotBonds>
2

$$$$

  Mrv1925 04172511382D          

 13 13  0  0  0  0            999 V2000
    0.7145    2.0625    0.0000 C   0  0  0  0  0  0  0  0  0  0  0  0
    0.7145    1.2375    0.0000 C   0  0  0  0  0  0  0  0  0  0  0  0
    1.4289    0.8250    0.0000 C   0  0  0  0  0  0  0  0  0  0  0  0
    1.4289   -0.0000    0.0000 C   0  0  0  0  0  0  0  0  0  0  0  0
    0.7145   -0.4125    0.0000 C   0  0  0  0  0  0  0  0  0  0  0  0
    0.0000    0.0000    0.0000 C   0  0  0  0  0  0  0  0  0  0  0  0
   -0.7145   -0.4125    0.0000 C   0  0  0  0  0  0  0  0  0  0  0  0
    0.0000    0.8250    0.0000 C   0  0  0  0  0  0  0  0  0  0  0  0
   -0.7145    1.2375    0.0000 O   0  0  0  0  0  0  0  0  0  0  0  0
   -1.4289    0.8250    0.0000 C   0  0  0  0  0  0  0  0  0  0  0  0
   -2.1434    1.2375    0.0000 C   0  0  0  0  0  0  0  0  0  0  0  0
   -2.8579    0.8250    0.0000 O   0  0  0  0  0  0  0  0  0  0  0  0
   -2.1434    2.0625    0.0000 O   0  0  0  0  0  0  0  0  0  0  0  0
  1  2  1  0  0  0  0
  2  3  2  0  0  0  0
  3  4  1  0  0  0  0
  4  5  2  0  0  0  0
  5  6  1  0  0  0  0
  6  7  1  0  0  0  0
  6  8  2  0  0  0  0
  2  8  1  0  0  0  0
  8  9  1  0  0  0  0
  9 10  1  0  0  0  0
 10 11  1  0  0  0  0
 11 12  2  0  0  0  0
 11 13  1  0  0  0  0
M  END
>  <Catalog ID>
Z56924437

>  <Plate_ID>
2026997-X50-04

>  <Well>
G04

>  <V, µL>
50

>  <Conc, mM>
10

>  <Formula>
C10H12O3

>  <MW>
180.2005

>  <Purity>
95

>  <PO>
5A-64168

>  <MW_salt>
0

>  <Stereochem.data>
Achiral

>  <Geometric.isomer>
None

>  <Chemical name>
2-(2,6-dimethylphenoxy)acetic acid

>  <ClogP>
2,348

>  <logS>
-2,04

>  <HBD>
1

>  <HBA>
3

>  <TPSA>
46,53

>  <RotBonds>
3

$$$$

  Mrv1925 04172511382D          

 12 13  0  0  0  0            999 V2000
    0.7145    6.7661    0.0000 O   0  0  0  0  0  0  0  0  0  0  0  0
    0.7145    5.9411    0.0000 C   0  0  0  0  0  0  0  0  0  0  0  0
    1.4289    5.5286    0.0000 C   0  0  0  0  0  0  0  0  0  0  0  0
    1.4289    4.7036    0.0000 C   0  0  0  0  0  0  0  0  0  0  0  0
    0.7145    4.2911    0.0000 C   0  0  0  0  0  0  0  0  0  0  0  0
    0.0000    4.7036    0.0000 C   0  0  0  0  0  0  0  0  0  0  0  0
    0.0000    5.5286    0.0000 C   0  0  0  0  0  0  0  0  0  0  0  0
    0.7145    3.4661    0.0000 N   0  0  0  0  0  0  0  0  0  0  0  0
    1.3819    2.9812    0.0000 C   0  0  0  0  0  0  0  0  0  0  0  0
    1.1270    2.1965    0.0000 C   0  0  0  0  0  0  0  0  0  0  0  0
    0.3020    2.1965    0.0000 N   0  0  0  0  0  0  0  0  0  0  0  0
    0.0470    2.9812    0.0000 C   0  0  0  0  0  0  0  0  0  0  0  0
  1  2  1  0  0  0  0
  2  3  1  0  0  0  0
  3  4  2  0  0  0  0
  4  5  1  0  0  0  0
  5  6  2  0  0  0  0
  6  7  1  0  0  0  0
  2  7  2  0  0  0  0
  5  8  1  0  0  0  0
  8  9  1  0  0  0  0
  9 10  2  0  0  0  0
 10 11  1  0  0  0  0
 11 12  2  0  0  0  0
  8 12  1  0  0  0  0
M  END
>  <Catalog ID>
Z56969320

>  <Plate_ID>
2026997-X50-04

>  <Well>
H04

>  <V, µL>
50

>  <Conc, mM>
10

>  <Formula>
C9H8N2O

>  <MW>
160.1726

>  <Purity>
95

>  <PO>
5A-64168

>  <MW_salt>
0

>  <Stereochem.data>
Achiral

>  <Geometric.isomer>
None

>  <Chemical name>
4-(1H-imidazol-1-yl)phenol

>  <ClogP>
1,734

>  <logS>
-1,14

>  <HBD>
1

>  <HBA>
2

>  <TPSA>
38,05

>  <RotBonds>
1

$$$$

  Mrv1925 04172511382D          

 11 11  0  0  0  0            999 V2000
    0.7145    2.8875    0.0000 N   0  0  0  0  0  0  0  0  0  0  0  0
    0.7145    2.0625    0.0000 S   0  0  0  0  0  0  0  0  0  0  0  0
   -0.1105    2.0625    0.0000 O   0  0  0  0  0  0  0  0  0  0  0  0
    1.5395    2.0625    0.0000 O   0  0  0  0  0  0  0  0  0  0  0  0
    0.7145    1.2375    0.0000 C   0  0  0  0  0  0  0  0  0  0  0  0
    1.4289    0.8250    0.0000 C   0  0  0  0  0  0  0  0  0  0  0  0
    1.4289   -0.0000    0.0000 C   0  0  0  0  0  0  0  0  0  0  0  0
    0.7145   -0.4125    0.0000 C   0  0  0  0  0  0  0  0  0  0  0  0
    0.0000    0.0000    0.0000 C   0  0  0  0  0  0  0  0  0  0  0  0
   -0.7145   -0.4125    0.0000 F   0  0  0  0  0  0  0  0  0  0  0  0
    0.0000    0.8250    0.0000 C   0  0  0  0  0  0  0  0  0  0  0  0
  1  2  1  0  0  0  0
  2  3  2  0  0  0  0
  2  4  2  0  0  0  0
  2  5  1  0  0  0  0
  5  6  1  0  0  0  0
  6  7  2  0  0  0  0
  7  8  1  0  0  0  0
  8  9  2  0  0  0  0
  9 10  1  0  0  0  0
  9 11  1  0  0  0  0
  5 11  2  0  0  0  0
M  END
>  <Catalog ID>
Z45415568

>  <Plate_ID>
2026997-X50-04

>  <Well>
A05

>  <V, µL>
50

>  <Conc, mM>
10

>  <Formula>
C6H6FNO2S

>  <MW>
175.1807

>  <Purity>
100

>  <PO>
5A-64168

>  <MW_salt>
0

>  <Stereochem.data>
Achiral

>  <Geometric.isomer>
None

>  <Chemical name>
3-fluorobenzene-1-sulfonamide

>  <ClogP>
0,694

>  <logS>
-1,62

>  <HBD>
1

>  <HBA>
2

>  <TPSA>
60,16

>  <RotBonds>
1

$$$$

  Mrv1925 04172511382D          

 13 13  0  0  0  0            999 V2000
    0.0000    0.0000    0.0000 Cl  0  0  0  0  0  0  0  0  0  0  0  0
    2.3571    1.3910    0.0000 N   0  0  0  0  0  0  0  0  0  0  0  0
    3.0716    0.9785    0.0000 C   0  0  0  0  0  0  0  0  0  0  0  0
    3.7861    1.3910    0.0000 C   0  0  0  0  0  0  0  0  0  0  0  0
    4.5006    0.9785    0.0000 C   0  0  0  0  0  0  0  0  0  0  0  0
    4.5006    0.1535    0.0000 N   0  0  0  0  0  0  0  0  0  0  0  0
    3.7861   -0.2590    0.0000 C   0  0  0  0  0  0  0  0  0  0  0  0
    3.0716    0.1535    0.0000 C   0  0  0  0  0  0  0  0  0  0  0  0
    5.2150   -0.2590    0.0000 C   0  0  0  0  0  0  0  0  0  0  0  0
    5.9295    0.1535    0.0000 O   0  0  0  0  0  0  0  0  0  0  0  0
    5.2150   -1.0840    0.0000 C   0  0  0  0  0  0  0  0  0  0  0  0
    5.6275   -1.7985    0.0000 C   0  0  0  0  0  0  0  0  0  0  0  0
    4.8025   -1.7985    0.0000 C   0  0  0  0  0  0  0  0  0  0  0  0
  2  3  1  0  0  0  0
  3  4  1  0  0  0  0
  4  5  1  0  0  0  0
  5  6  1  0  0  0  0
  6  7  1  0  0  0  0
  7  8  1  0  0  0  0
  3  8  1  0  0  0  0
  6  9  1  0  0  0  0
  9 10  2  0  0  0  0
  9 11  1  0  0  0  0
 11 12  1  0  0  0  0
 12 13  1  0  0  0  0
 11 13  1  0  0  0  0
M  END
>  <Catalog ID>
Z1455658966

>  <Plate_ID>
2026997-X50-04

>  <Well>
B05

>  <V, µL>
50

>  <Conc, mM>
10

>  <Formula>
C9H17ClN2O

>  <MW>
204.6971

>  <Purity>
100

>  <PO>
5A-64168

>  <Salt smiles>
Cl

>  <Salt_name>
Hydrochloric Acid

>  <Salt_ratio>
1

>  <MW_salt>
36.4609

>  <Stereochem.data>
Achiral

>  <Geometric.isomer>
None

>  <Chemical name>
1-cyclopropanecarbonylpiperidin-4-amine hydrochloride

>  <ClogP>
-1,422

>  <logS>
-1,763

>  <HBD>
1

>  <HBA>
2

>  <TPSA>
46,33

>  <RotBonds>
1

$$$$

  Mrv1925 04172511382D          

 14 14  0  0  0  0            999 V2000
   -0.7145    2.8875    0.0000 C   0  0  0  0  0  0  0  0  0  0  0  0
    0.0000    2.4750    0.0000 S   0  0  0  0  0  0  0  0  0  0  0  0
   -0.4125    1.7605    0.0000 O   0  0  0  0  0  0  0  0  0  0  0  0
    0.4125    3.1895    0.0000 O   0  0  0  0  0  0  0  0  0  0  0  0
    0.7145    2.0625    0.0000 N   0  0  0  0  0  0  0  0  0  0  0  0
    0.7145    1.2375    0.0000 C   0  0  0  0  0  0  0  0  0  0  0  0
    1.4289    0.8250    0.0000 C   0  0  0  0  0  0  0  0  0  0  0  0
    1.4289   -0.0000    0.0000 C   0  0  0  0  0  0  0  0  0  0  0  0
    0.7145   -0.4125    0.0000 C   0  0  0  0  0  0  0  0  0  0  0  0
    0.0000    0.0000    0.0000 C   0  0  0  0  0  0  0  0  0  0  0  0
    0.0000    0.8250    0.0000 C   0  0  0  0  0  0  0  0  0  0  0  0
    0.7145   -1.2375    0.0000 C   0  0  0  0  0  0  0  0  0  0  0  0
    1.4289   -1.6500    0.0000 O   0  0  0  0  0  0  0  0  0  0  0  0
   -0.0000   -1.6500    0.0000 O   0  0  0  0  0  0  0  0  0  0  0  0
  1  2  1  0  0  0  0
  2  3  2  0  0  0  0
  2  4  2  0  0  0  0
  2  5  1  0  0  0  0
  5  6  1  0  0  0  0
  6  7  1  0  0  0  0
  7  8  2  0  0  0  0
  8  9  1  0  0  0  0
  9 10  2  0  0  0  0
 10 11  1  0  0  0  0
  6 11  2  0  0  0  0
  9 12  1  0  0  0  0
 12 13  2  0  0  0  0
 12 14  1  0  0  0  0
M  END
>  <Catalog ID>
Z45636695

>  <Plate_ID>
2026997-X50-04

>  <Well>
C05

>  <V, µL>
50

>  <Conc, mM>
10

>  <Formula>
C8H9NO4S

>  <MW>
215.2264

>  <Purity>
100

>  <PO>
5A-64168

>  <MW_salt>
0

>  <Stereochem.data>
Achiral

>  <Geometric.isomer>
None

>  <Chemical name>
4-methanesulfonamidobenzoic acid

>  <ClogP>
0,918

>  <logS>
-1,47

>  <HBD>
2

>  <HBA>
4

>  <TPSA>
83,47

>  <RotBonds>
2

$$$$

  Mrv1925 04172511382D          

 11 11  0  0  0  0            999 V2000
    0.7145    2.0625    0.0000 C   0  0  0  0  0  0  0  0  0  0  0  0
    0.7145    1.2375    0.0000 C   0  0  0  0  0  0  0  0  0  0  0  0
    1.4289    0.8250    0.0000 C   0  0  0  0  0  0  0  0  0  0  0  0
    1.4289   -0.0000    0.0000 C   0  0  0  0  0  0  0  0  0  0  0  0
    0.7145   -0.4125    0.0000 C   0  0  0  0  0  0  0  0  0  0  0  0
    0.0000    0.0000    0.0000 C   0  0  0  0  0  0  0  0  0  0  0  0
    0.0000    0.8250    0.0000 C   0  0  0  0  0  0  0  0  0  0  0  0
    0.7145   -1.2375    0.0000 S   0  0  0  0  0  0  0  0  0  0  0  0
    0.7145   -2.0625    0.0000 N   0  0  0  0  0  0  0  0  0  0  0  0
   -0.1105   -1.2375    0.0000 O   0  0  0  0  0  0  0  0  0  0  0  0
    1.5395   -1.2375    0.0000 O   0  0  0  0  0  0  0  0  0  0  0  0
  1  2  1  0  0  0  0
  2  3  1  0  0  0  0
  3  4  2  0  0  0  0
  4  5  1  0  0  0  0
  5  6  2  0  0  0  0
  6  7  1  0  0  0  0
  2  7  2  0  0  0  0
  5  8  1  0  0  0  0
  8  9  1  0  0  0  0
  8 10  2  0  0  0  0
  8 11  2  0  0  0  0
M  END
>  <Catalog ID>
Z45415564

>  <Plate_ID>
2026997-X50-04

>  <Well>
D05

>  <V, µL>
50

>  <Conc, mM>
10

>  <Formula>
C7H9NO2S

>  <MW>
171.2169

>  <Purity>
100

>  <PO>
5A-64168

>  <MW_salt>
0

>  <Stereochem.data>
Achiral

>  <Geometric.isomer>
None

>  <Chemical name>
4-methylbenzene-1-sulfonamide

>  <ClogP>
0,804

>  <logS>
-1,85

>  <HBD>
1

>  <HBA>
2

>  <TPSA>
60,16

>  <RotBonds>
1

$$$$

  Mrv1925 04172511382D          

 14 15  0  0  0  0            999 V2000
    4.7812    1.9354    0.0000 C   0  0  0  0  0  0  0  0  0  0  0  0
    4.0668    2.3479    0.0000 O   0  0  0  0  0  0  0  0  0  0  0  0
    3.3523    1.9354    0.0000 C   0  0  0  0  0  0  0  0  0  0  0  0
    3.3523    1.1104    0.0000 C   0  0  0  0  0  0  0  0  0  0  0  0
    2.6378    0.6979    0.0000 C   0  0  0  0  0  0  0  0  0  0  0  0
    1.9233    1.1104    0.0000 C   0  0  0  0  0  0  0  0  0  0  0  0
    1.1387    0.8555    0.0000 N   0  0  0  0  0  0  0  0  0  0  0  0
    0.6538    1.5229    0.0000 C   0  0  0  0  0  0  0  0  0  0  0  0
    1.1387    2.1904    0.0000 C   0  0  0  0  0  0  0  0  0  0  0  0
    1.9233    1.9354    0.0000 C   0  0  0  0  0  0  0  0  0  0  0  0
    2.6378    2.3479    0.0000 C   0  0  0  0  0  0  0  0  0  0  0  0
   -0.1712    1.5229    0.0000 C   0  0  0  0  0  0  0  0  0  0  0  0
   -0.5837    0.8085    0.0000 O   0  0  0  0  0  0  0  0  0  0  0  0
   -0.5837    2.2374    0.0000 O   0  0  0  0  0  0  0  0  0  0  0  0
  1  2  1  0  0  0  0
  2  3  1  0  0  0  0
  3  4  1  0  0  0  0
  4  5  2  0  0  0  0
  5  6  1  0  0  0  0
  6  7  1  0  0  0  0
  7  8  1  0  0  0  0
  8  9  2  0  0  0  0
  9 10  1  0  0  0  0
  6 10  2  0  0  0  0
 10 11  1  0  0  0  0
  3 11  2  0  0  0  0
  8 12  1  0  0  0  0
 12 13  2  0  0  0  0
 12 14  1  0  0  0  0
M  END
>  <Catalog ID>
Z1096153758

>  <Plate_ID>
2026997-X50-04

>  <Well>
E05

>  <V, µL>
50

>  <Conc, mM>
10

>  <Formula>
C10H9NO3

>  <MW>
191.1834

>  <Purity>
100

>  <PO>
5A-64168

>  <MW_salt>
0

>  <Stereochem.data>
Achiral

>  <Geometric.isomer>
None

>  <Chemical name>
5-methoxy-1H-indole-2-carboxylic acid

>  <ClogP>
2,135

>  <logS>
-2,69

>  <HBD>
2

>  <HBA>
3

>  <TPSA>
62,32

>  <RotBonds>
2

$$$$

  Mrv1925 04172511382D          

 12 13  0  0  0  0            999 V2000
    0.8986   -2.2820    0.0000 C   0  0  0  0  0  0  0  0  0  0  0  0
    1.4289   -1.6500    0.0000 C   0  0  0  0  0  0  0  0  0  0  0  0
    1.9592   -2.2820    0.0000 C   0  0  0  0  0  0  0  0  0  0  0  0
    0.7145   -1.2375    0.0000 C   0  0  0  0  0  0  0  0  0  0  0  0
    0.7145   -0.4125    0.0000 N   0  0  0  0  0  0  0  0  0  0  0  0
    1.4289    0.0000    0.0000 C   0  0  0  0  0  0  0  0  0  0  0  0
    2.1434   -0.4125    0.0000 C   0  0  0  0  0  0  0  0  0  0  0  0
    2.8579    0.0000    0.0000 C   0  0  0  0  0  0  0  0  0  0  0  0
    3.5724   -0.4125    0.0000 C   0  0  0  0  0  0  0  0  0  0  0  0
    3.5724   -1.2375    0.0000 C   0  0  0  0  0  0  0  0  0  0  0  0
    2.8579   -1.6500    0.0000 C   0  0  0  0  0  0  0  0  0  0  0  0
    2.1434   -1.2375    0.0000 C   0  0  0  0  0  0  0  0  0  0  0  0
  1  2  1  0  0  0  0
  2  3  1  0  0  0  0
  2  4  1  0  0  0  0
  4  5  1  0  0  0  0
  5  6  1  0  0  0  0
  6  7  1  0  0  0  0
  7  8  2  0  0  0  0
  8  9  1  0  0  0  0
  9 10  2  0  0  0  0
 10 11  1  0  0  0  0
 11 12  2  0  0  0  0
  7 12  1  0  0  0  0
  2 12  1  0  0  0  0
M  END
>  <Catalog ID>
Z1198176426

>  <Plate_ID>
2026997-X50-04

>  <Well>
F05

>  <V, µL>
50

>  <Conc, mM>
10

>  <Formula>
C11H15N

>  <MW>
161.2435

>  <Purity>
98

>  <PO>
5A-64168

>  <MW_salt>
0

>  <Stereochem.data>
Achiral

>  <Geometric.isomer>
None

>  <Chemical name>
4,4-dimethyl-1,2,3,4-tetrahydroisoquinoline

>  <ClogP>
2,633

>  <logS>
-1,28

>  <HBD>
1

>  <HBA>
1

>  <TPSA>
12,03

>  <RotBonds>
0

$$$$

  Mrv1925 04172511382D          

 12 12  0  0  0  0            999 V2000
    0.0000    2.4750    0.0000 C   0  0  0  0  0  0  0  0  0  0  0  0
    0.7145    2.0625    0.0000 S   0  0  0  0  0  0  0  0  0  0  0  0
    0.7145    1.2375    0.0000 C   0  0  0  0  0  0  0  0  0  0  0  0
    1.4289    0.8250    0.0000 C   0  0  0  0  0  0  0  0  0  0  0  0
    1.4289   -0.0000    0.0000 C   0  0  0  0  0  0  0  0  0  0  0  0
    0.7145   -0.4125    0.0000 C   0  0  0  0  0  0  0  0  0  0  0  0
    0.7145   -1.2375    0.0000 O   0  0  0  0  0  0  0  0  0  0  0  0
    0.0000    0.0000    0.0000 C   0  0  0  0  0  0  0  0  0  0  0  0
    0.0000    0.8250    0.0000 C   0  0  0  0  0  0  0  0  0  0  0  0
   -0.7145   -0.4125    0.0000 C   0  0  0  0  0  0  0  0  0  0  0  0
   -1.4289    0.0000    0.0000 O   0  0  0  0  0  0  0  0  0  0  0  0
   -0.7145   -1.2375    0.0000 O   0  0  0  0  0  0  0  0  0  0  0  0
  1  2  1  0  0  0  0
  2  3  1  0  0  0  0
  3  4  1  0  0  0  0
  4  5  2  0  0  0  0
  5  6  1  0  0  0  0
  6  7  1  0  0  0  0
  6  8  2  0  0  0  0
  8  9  1  0  0  0  0
  3  9  2  0  0  0  0
  8 10  1  0  0  0  0
 10 11  2  0  0  0  0
 10 12  1  0  0  0  0
M  END
>  <Catalog ID>
Z1255431342

>  <Plate_ID>
2026997-X50-04

>  <Well>
G05

>  <V, µL>
50

>  <Conc, mM>
10

>  <Formula>
C8H8O3S

>  <MW>
184.2123

>  <Purity>
100

>  <PO>
5A-64168

>  <MW_salt>
0

>  <Stereochem.data>
Achiral

>  <Geometric.isomer>
None

>  <Chemical name>
2-hydroxy-5-(methylsulfanyl)benzoic acid

>  <ClogP>
2,765

>  <logS>
-1,92

>  <HBD>
2

>  <HBA>
3

>  <TPSA>
57,53

>  <RotBonds>
2

$$$$

  Mrv1925 04172511382D          

 16 16  0  0  0  0            999 V2000
    0.0000    0.0000    0.0000 Cl  0  0  0  0  0  0  0  0  0  0  0  0
    1.7679    1.7739    0.0000 F   0  0  0  0  0  0  0  0  0  0  0  0
    2.4823    1.3614    0.0000 C   0  0  0  0  0  0  0  0  0  0  0  0
    2.0698    0.6470    0.0000 F   0  0  0  0  0  0  0  0  0  0  0  0
    2.8948    2.0759    0.0000 F   0  0  0  0  0  0  0  0  0  0  0  0
    3.1968    0.9489    0.0000 C   0  0  0  0  0  0  0  0  0  0  0  0
    3.9113    1.3614    0.0000 C   0  0  0  0  0  0  0  0  0  0  0  0
    4.6257    0.9489    0.0000 C   0  0  0  0  0  0  0  0  0  0  0  0
    4.6257    0.1239    0.0000 N   0  0  0  0  0  0  0  0  0  0  0  0
    3.9113   -0.2886    0.0000 C   0  0  0  0  0  0  0  0  0  0  0  0
    3.1968    0.1239    0.0000 N   0  0  0  0  0  0  0  0  0  0  0  0
    3.9113   -1.1136    0.0000 C   0  0  0  0  0  0  0  0  0  0  0  0
    4.5787   -1.5985    0.0000 C   0  0  0  0  0  0  0  0  0  0  0  0
    4.3238   -2.3831    0.0000 C   0  0  0  0  0  0  0  0  0  0  0  0
    3.4988   -2.3831    0.0000 C   0  0  0  0  0  0  0  0  0  0  0  0
    3.2438   -1.5985    0.0000 N   0  0  0  0  0  0  0  0  0  0  0  0
  2  3  1  0  0  0  0
  3  4  1  0  0  0  0
  3  5  1  0  0  0  0
  3  6  1  0  0  0  0
  6  7  1  0  0  0  0
  7  8  2  0  0  0  0
  8  9  1  0  0  0  0
  9 10  2  0  0  0  0
 10 11  1  0  0  0  0
  6 11  2  0  0  0  0
 10 12  1  0  0  0  0
 12 13  1  0  0  0  0
 13 14  1  0  0  0  0
 14 15  1  0  0  0  0
 15 16  1  0  0  0  0
 12 16  1  0  0  0  0
M  END
>  <Catalog ID>
Z2512961790

>  <Plate_ID>
2026997-X50-04

>  <Well>
H05

>  <V, µL>
50

>  <Conc, mM>
10

>  <Formula>
C9H11ClF3N3

>  <MW>
253.6519

>  <Purity>
100

>  <PO>
5A-64168

>  <Salt smiles>
Cl

>  <Salt_name>
Hydrochloric Acid

>  <Salt_ratio>
1

>  <MW_salt>
36.4609

>  <Stereochem.data>
Racemic or presumed racemic or meso

>  <Geometric.isomer>
None

>  <Chemical name>
2-(pyrrolidin-2-yl)-4-(trifluoromethyl)pyrimidine hydrochloride

>  <ClogP>
0,43

>  <logS>
-1,859

>  <HBD>
1

>  <HBA>
3

>  <TPSA>
37,81

>  <RotBonds>
2

$$$$

  Mrv1925 04172511382D          

  9  9  0  0  0  0            999 V2000
    0.0000    2.4750    0.0000 C   0  0  0  0  0  0  0  0  0  0  0  0
    0.7145    2.0625    0.0000 S   0  0  0  0  0  0  0  0  0  0  0  0
    0.7145    1.2375    0.0000 C   0  0  0  0  0  0  0  0  0  0  0  0
    1.4289    0.8250    0.0000 C   0  0  0  0  0  0  0  0  0  0  0  0
    1.4289   -0.0000    0.0000 C   0  0  0  0  0  0  0  0  0  0  0  0
    0.7145   -0.4125    0.0000 C   0  0  0  0  0  0  0  0  0  0  0  0
    0.7145   -1.2375    0.0000 N   0  0  0  0  0  0  0  0  0  0  0  0
    0.0000    0.0000    0.0000 C   0  0  0  0  0  0  0  0  0  0  0  0
    0.0000    0.8250    0.0000 C   0  0  0  0  0  0  0  0  0  0  0  0
  1  2  1  0  0  0  0
  2  3  1  0  0  0  0
  3  4  1  0  0  0  0
  4  5  2  0  0  0  0
  5  6  1  0  0  0  0
  6  7  1  0  0  0  0
  6  8  2  0  0  0  0
  8  9  1  0  0  0  0
  3  9  2  0  0  0  0
M  END
>  <Catalog ID>
Z104511114

>  <Plate_ID>
2026997-X50-04

>  <Well>
A06

>  <V, µL>
50

>  <Conc, mM>
10

>  <Formula>
C7H9NS

>  <MW>
139.2181

>  <Purity>
99.35

>  <PO>
5A-64168

>  <MW_salt>
0

>  <Stereochem.data>
Achiral

>  <Geometric.isomer>
None

>  <Chemical name>
4-(methylsulfanyl)aniline

>  <ClogP>
1,474

>  <logS>
-1,99

>  <HBD>
1

>  <HBA>
1

>  <TPSA>
26,02

>  <RotBonds>
1

$$$$

  Mrv1925 04172511382D          

 10 10  0  0  0  0            999 V2000
    0.7145    2.8875    0.0000 N   0  0  0  0  0  0  0  0  0  0  0  0
    0.7145    2.0625    0.0000 C   0  0  0  0  0  0  0  0  0  0  0  0
    0.7145    1.2375    0.0000 C   0  0  0  0  0  0  0  0  0  0  0  0
    1.4289    0.8250    0.0000 C   0  0  0  0  0  0  0  0  0  0  0  0
    1.4289   -0.0000    0.0000 C   0  0  0  0  0  0  0  0  0  0  0  0
    0.7145   -0.4125    0.0000 C   0  0  0  0  0  0  0  0  0  0  0  0
    0.7145   -1.2375    0.0000 O   0  0  0  0  0  0  0  0  0  0  0  0
    0.0000    0.0000    0.0000 C   0  0  0  0  0  0  0  0  0  0  0  0
    0.0000    0.8250    0.0000 C   0  0  0  0  0  0  0  0  0  0  0  0
   -0.7145    1.2375    0.0000 F   0  0  0  0  0  0  0  0  0  0  0  0
  1  2  3  0  0  0  0
  2  3  1  0  0  0  0
  3  4  1  0  0  0  0
  4  5  2  0  0  0  0
  5  6  1  0  0  0  0
  6  7  1  0  0  0  0
  6  8  2  0  0  0  0
  8  9  1  0  0  0  0
  3  9  2  0  0  0  0
  9 10  1  0  0  0  0
M  END
>  <Catalog ID>
Z1157728598

>  <Plate_ID>
2026997-X50-04

>  <Well>
B06

>  <V, µL>
50

>  <Conc, mM>
10

>  <Formula>
C7H4FNO

>  <MW>
137.1112

>  <Purity>
100

>  <PO>
5A-64168

>  <MW_salt>
0

>  <Stereochem.data>
Achiral

>  <Geometric.isomer>
None

>  <Chemical name>
2-fluoro-4-hydroxybenzonitrile

>  <ClogP>
1,844

>  <logS>
-1,57

>  <HBD>
1

>  <HBA>
2

>  <TPSA>
44,02

>  <RotBonds>
0

$$$$

  Mrv1925 04172511382D          

 11 12  0  0  0  0            999 V2000
    1.4289   -2.4750    0.0000 O   0  0  0  0  0  0  0  0  0  0  0  0
    1.4289   -1.6500    0.0000 C   0  0  0  0  0  0  0  0  0  0  0  0
    0.7145   -1.2375    0.0000 N   0  0  0  0  0  0  0  0  0  0  0  0
    0.7145   -0.4125    0.0000 C   0  0  0  0  0  0  0  0  0  0  0  0
    1.4289    0.0000    0.0000 C   0  0  0  0  0  0  0  0  0  0  0  0
    2.1434   -0.4125    0.0000 C   0  0  0  0  0  0  0  0  0  0  0  0
    2.8579    0.0000    0.0000 C   0  0  0  0  0  0  0  0  0  0  0  0
    3.5724   -0.4125    0.0000 C   0  0  0  0  0  0  0  0  0  0  0  0
    3.5724   -1.2375    0.0000 C   0  0  0  0  0  0  0  0  0  0  0  0
    2.8579   -1.6500    0.0000 C   0  0  0  0  0  0  0  0  0  0  0  0
    2.1434   -1.2375    0.0000 C   0  0  0  0  0  0  0  0  0  0  0  0
  1  2  2  0  0  0  0
  2  3  1  0  0  0  0
  3  4  1  0  0  0  0
  4  5  1  0  0  0  0
  5  6  1  0  0  0  0
  6  7  1  0  0  0  0
  7  8  2  0  0  0  0
  8  9  1  0  0  0  0
  9 10  2  0  0  0  0
 10 11  1  0  0  0  0
  2 11  1  0  0  0  0
  6 11  2  0  0  0  0
M  END
>  <Catalog ID>
Z56801375

>  <Plate_ID>
2026997-X50-04

>  <Well>
C06

>  <V, µL>
50

>  <Conc, mM>
10

>  <Formula>
C9H9NO

>  <MW>
147.1739

>  <Purity>
100

>  <PO>
5A-64168

>  <MW_salt>
0

>  <Stereochem.data>
Achiral

>  <Geometric.isomer>
None

>  <Chemical name>
1,2,3,4-tetrahydroisoquinolin-1-one

>  <ClogP>
0,996

>  <logS>
-1,47

>  <HBD>
1

>  <HBA>
1

>  <TPSA>
29,1

>  <RotBonds>
0

$$$$

  Mrv1925 04172511382D          

 13 13  0  0  0  0            999 V2000
    0.7145   -2.8875    0.0000 O   0  0  0  0  0  0  0  0  0  0  0  0
    0.7145   -2.0625    0.0000 C   0  0  0  0  0  0  0  0  0  0  0  0
    1.4289   -1.6500    0.0000 N   0  0  0  0  0  0  0  0  0  0  0  0
    2.1434   -2.0625    0.0000 C   0  0  0  0  0  0  0  0  0  0  0  0
    2.8579   -1.6500    0.0000 C   0  0  0  0  0  0  0  0  0  0  0  0
    3.5724   -2.0625    0.0000 O   0  0  0  0  0  0  0  0  0  0  0  0
    0.0000   -1.6500    0.0000 C   0  0  0  0  0  0  0  0  0  0  0  0
   -0.7145   -2.0625    0.0000 C   0  0  0  0  0  0  0  0  0  0  0  0
   -1.4289   -1.6500    0.0000 C   0  0  0  0  0  0  0  0  0  0  0  0
   -1.4289   -0.8250    0.0000 C   0  0  0  0  0  0  0  0  0  0  0  0
   -2.1434   -0.4125    0.0000 Cl  0  0  0  0  0  0  0  0  0  0  0  0
   -0.7145   -0.4125    0.0000 C   0  0  0  0  0  0  0  0  0  0  0  0
    0.0000   -0.8250    0.0000 C   0  0  0  0  0  0  0  0  0  0  0  0
  1  2  2  0  0  0  0
  2  3  1  0  0  0  0
  3  4  1  0  0  0  0
  4  5  1  0  0  0  0
  5  6  1  0  0  0  0
  2  7  1  0  0  0  0
  7  8  1  0  0  0  0
  8  9  2  0  0  0  0
  9 10  1  0  0  0  0
 10 11  1  0  0  0  0
 10 12  2  0  0  0  0
 12 13  1  0  0  0  0
  7 13  2  0  0  0  0
M  END
>  <Catalog ID>
Z31725206

>  <Plate_ID>
2026997-X50-04

>  <Well>
D06

>  <V, µL>
50

>  <Conc, mM>
10

>  <Formula>
C9H10ClNO2

>  <MW>
199.6342

>  <Purity>
100

>  <PO>
5A-64168

>  <MW_salt>
0

>  <Stereochem.data>
Achiral

>  <Geometric.isomer>
None

>  <Chemical name>
4-chloro-N-(2-hydroxyethyl)benzamide

>  <ClogP>
1,215

>  <logS>
-2,25

>  <HBD>
2

>  <HBA>
2

>  <TPSA>
49,33

>  <RotBonds>
3

$$$$

  Mrv1925 04172511382D          

 12 13  0  0  0  0            999 V2000
    0.0000   -1.6500    0.0000 N   0  0  0  0  0  0  0  0  0  0  0  0
    0.7145   -1.2375    0.0000 C   0  0  0  0  0  0  0  0  0  0  0  0
    0.7145   -0.4125    0.0000 C   0  0  0  0  0  0  0  0  0  0  0  0
    1.4289    0.0000    0.0000 C   0  0  0  0  0  0  0  0  0  0  0  0
    2.1434   -0.4125    0.0000 C   0  0  0  0  0  0  0  0  0  0  0  0
    2.8579    0.0000    0.0000 O   0  0  0  0  0  0  0  0  0  0  0  0
    3.5724   -0.4125    0.0000 C   0  0  0  0  0  0  0  0  0  0  0  0
    4.2868   -0.0000    0.0000 O   0  0  0  0  0  0  0  0  0  0  0  0
    3.5724   -1.2375    0.0000 C   0  0  0  0  0  0  0  0  0  0  0  0
    2.8579   -1.6500    0.0000 C   0  0  0  0  0  0  0  0  0  0  0  0
    2.1434   -1.2375    0.0000 C   0  0  0  0  0  0  0  0  0  0  0  0
    1.4289   -1.6500    0.0000 C   0  0  0  0  0  0  0  0  0  0  0  0
  1  2  1  0  0  0  0
  2  3  2  0  0  0  0
  3  4  1  0  0  0  0
  4  5  2  0  0  0  0
  5  6  1  0  0  0  0
  6  7  1  0  0  0  0
  7  8  2  0  0  0  0
  7  9  1  0  0  0  0
  9 10  2  0  0  0  0
 10 11  1  0  0  0  0
  5 11  1  0  0  0  0
 11 12  2  0  0  0  0
  2 12  1  0  0  0  0
M  END
>  <Catalog ID>
Z56754502

>  <Plate_ID>
2026997-X50-04

>  <Well>
E06

>  <V, µL>
50

>  <Conc, mM>
10

>  <Formula>
C9H7NO2

>  <MW>
161.1574

>  <Purity>
98.56

>  <PO>
5A-64168

>  <MW_salt>
0

>  <Stereochem.data>
Achiral

>  <Geometric.isomer>
None

>  <Chemical name>
6-amino-2H-chromen-2-one

>  <ClogP>
1,014

>  <logS>
-2,38

>  <HBD>
1

>  <HBA>
2

>  <TPSA>
52,32

>  <RotBonds>
0

$$$$

  Mrv1925 04172511382D          

 12 13  0  0  0  0            999 V2000
    0.0000   -1.6500    0.0000 O   0  0  0  0  0  0  0  0  0  0  0  0
    0.7145   -1.2375    0.0000 C   0  0  0  0  0  0  0  0  0  0  0  0
    0.7145   -0.4125    0.0000 C   0  0  0  0  0  0  0  0  0  0  0  0
    1.4289    0.0000    0.0000 N   0  0  0  0  0  0  0  0  0  0  0  0
    2.1434   -0.4125    0.0000 C   0  0  0  0  0  0  0  0  0  0  0  0
    2.8579    0.0000    0.0000 C   0  0  0  0  0  0  0  0  0  0  0  0
    3.5724   -0.4125    0.0000 C   0  0  0  0  0  0  0  0  0  0  0  0
    4.2868   -0.0000    0.0000 Br  0  0  0  0  0  0  0  0  0  0  0  0
    3.5724   -1.2375    0.0000 C   0  0  0  0  0  0  0  0  0  0  0  0
    2.8579   -1.6500    0.0000 C   0  0  0  0  0  0  0  0  0  0  0  0
    2.1434   -1.2375    0.0000 C   0  0  0  0  0  0  0  0  0  0  0  0
    1.4289   -1.6500    0.0000 N   0  0  0  0  0  0  0  0  0  0  0  0
  1  2  2  0  0  0  0
  2  3  1  0  0  0  0
  3  4  1  0  0  0  0
  4  5  1  0  0  0  0
  5  6  1  0  0  0  0
  6  7  2  0  0  0  0
  7  8  1  0  0  0  0
  7  9  1  0  0  0  0
  9 10  2  0  0  0  0
 10 11  1  0  0  0  0
  5 11  2  0  0  0  0
 11 12  1  0  0  0  0
  2 12  1  0  0  0  0
M  END
>  <Catalog ID>
Z1269175847

>  <Plate_ID>
2026997-X50-04

>  <Well>
F06

>  <V, µL>
50

>  <Conc, mM>
10

>  <Formula>
C8H7BrN2O

>  <MW>
227.058

>  <Purity>
100

>  <PO>
5A-64168

>  <MW_salt>
0

>  <Stereochem.data>
Achiral

>  <Geometric.isomer>
None

>  <Chemical name>
6-bromo-1,2,3,4-tetrahydroquinoxalin-2-one

>  <ClogP>
1,672

>  <logS>
-2,37

>  <HBD>
2

>  <HBA>
2

>  <TPSA>
41,13

>  <RotBonds>
0

$$$$

  Mrv1925 04172511382D          

 13 14  0  0  0  0            999 V2000
    0.0000   -2.4750    0.0000 O   0  0  0  0  0  0  0  0  0  0  0  0
    0.0000   -1.6500    0.0000 C   0  0  0  0  0  0  0  0  0  0  0  0
   -0.7145   -1.2375    0.0000 O   0  0  0  0  0  0  0  0  0  0  0  0
    0.7145   -1.2375    0.0000 C   0  0  0  0  0  0  0  0  0  0  0  0
    0.7145   -0.4125    0.0000 C   0  0  0  0  0  0  0  0  0  0  0  0
    1.4289    0.0000    0.0000 N   0  0  0  0  0  0  0  0  0  0  0  0
    2.1434   -0.4125    0.0000 C   0  0  0  0  0  0  0  0  0  0  0  0
    2.8579    0.0000    0.0000 C   0  0  0  0  0  0  0  0  0  0  0  0
    3.5724   -0.4125    0.0000 C   0  0  0  0  0  0  0  0  0  0  0  0
    3.5724   -1.2375    0.0000 C   0  0  0  0  0  0  0  0  0  0  0  0
    2.8579   -1.6500    0.0000 C   0  0  0  0  0  0  0  0  0  0  0  0
    2.1434   -1.2375    0.0000 C   0  0  0  0  0  0  0  0  0  0  0  0
    1.4289   -1.6500    0.0000 C   0  0  0  0  0  0  0  0  0  0  0  0
  1  2  2  0  0  0  0
  2  3  1  0  0  0  0
  2  4  1  0  0  0  0
  4  5  2  0  0  0  0
  5  6  1  0  0  0  0
  6  7  2  0  0  0  0
  7  8  1  0  0  0  0
  8  9  2  0  0  0  0
  9 10  1  0  0  0  0
 10 11  2  0  0  0  0
 11 12  1  0  0  0  0
  7 12  1  0  0  0  0
 12 13  2  0  0  0  0
  4 13  1  0  0  0  0
M  END
>  <Catalog ID>
Z838909446

>  <Plate_ID>
2026997-X50-04

>  <Well>
G06

>  <V, µL>
50

>  <Conc, mM>
10

>  <Formula>
C10H7NO2

>  <MW>
173.1681

>  <Purity>
100

>  <PO>
5A-64168

>  <MW_salt>
0

>  <Stereochem.data>
Achiral

>  <Geometric.isomer>
None

>  <Chemical name>
quinoline-3-carboxylic acid

>  <ClogP>
2,183

>  <logS>
-2,17

>  <HBD>
1

>  <HBA>
3

>  <TPSA>
50,19

>  <RotBonds>
1

$$$$

  Mrv1925 04172511382D          

 15 16  0  0  0  0            999 V2000
    1.4289   -0.0000    0.0000 O   0  0  0  0  0  0  0  0  0  0  0  0
    0.7145   -0.4125    0.0000 C   0  0  0  0  0  0  0  0  0  0  0  0
    0.0000    0.0000    0.0000 O   0  0  0  0  0  0  0  0  0  0  0  0
    0.7145   -1.2375    0.0000 C   0  0  0  0  0  0  0  0  0  0  0  0
    1.4289   -1.6500    0.0000 C   0  0  0  0  0  0  0  0  0  0  0  0
    1.4289   -2.4750    0.0000 N   0  0  0  0  0  0  0  0  0  0  0  0
    0.7145   -2.8875    0.0000 C   0  0  0  0  0  0  0  0  0  0  0  0
    0.0000   -2.4750    0.0000 C   0  0  0  0  0  0  0  0  0  0  0  0
    0.0000   -1.6500    0.0000 C   0  0  0  0  0  0  0  0  0  0  0  0
   -0.7145   -2.8875    0.0000 C   0  0  0  0  0  0  0  0  0  0  0  0
   -0.7145   -3.7125    0.0000 C   0  0  0  0  0  0  0  0  0  0  0  0
   -1.4289   -4.1250    0.0000 C   0  0  0  0  0  0  0  0  0  0  0  0
   -2.1434   -3.7125    0.0000 C   0  0  0  0  0  0  0  0  0  0  0  0
   -2.1434   -2.8875    0.0000 C   0  0  0  0  0  0  0  0  0  0  0  0
   -1.4289   -2.4750    0.0000 C   0  0  0  0  0  0  0  0  0  0  0  0
  1  2  2  0  0  0  0
  2  3  1  0  0  0  0
  2  4  1  0  0  0  0
  4  5  1  0  0  0  0
  5  6  2  0  0  0  0
  6  7  1  0  0  0  0
  7  8  2  0  0  0  0
  8  9  1  0  0  0  0
  4  9  2  0  0  0  0
  8 10  1  0  0  0  0
 10 11  1  0  0  0  0
 11 12  2  0  0  0  0
 12 13  1  0  0  0  0
 13 14  2  0  0  0  0
 14 15  1  0  0  0  0
 10 15  2  0  0  0  0
M  END
>  <Catalog ID>
Z363993550

>  <Plate_ID>
2026997-X50-04

>  <Well>
H06

>  <V, µL>
50

>  <Conc, mM>
10

>  <Formula>
C12H9NO2

>  <MW>
199.2054

>  <Purity>
99.27

>  <PO>
5A-64168

>  <MW_salt>
0

>  <Stereochem.data>
Achiral

>  <Geometric.isomer>
None

>  <Chemical name>
5-phenylpyridine-3-carboxylic acid

>  <ClogP>
2,687

>  <logS>
-2,82

>  <HBD>
1

>  <HBA>
3

>  <TPSA>
50,19

>  <RotBonds>
2

$$$$

  Mrv1925 04172511382D          

 11 11  0  0  0  0            999 V2000
    0.7145    2.0625    0.0000 N   0  0  0  0  0  0  0  0  0  0  0  0
    0.7145    1.2375    0.0000 C   0  0  0  0  0  0  0  0  0  0  0  0
    1.4289    0.8250    0.0000 C   0  0  0  0  0  0  0  0  0  0  0  0
    1.4289   -0.0000    0.0000 C   0  0  0  0  0  0  0  0  0  0  0  0
    0.7145   -0.4125    0.0000 C   0  0  0  0  0  0  0  0  0  0  0  0
    0.7145   -1.2375    0.0000 Br  0  0  0  0  0  0  0  0  0  0  0  0
    0.0000    0.0000    0.0000 C   0  0  0  0  0  0  0  0  0  0  0  0
    0.0000    0.8250    0.0000 C   0  0  0  0  0  0  0  0  0  0  0  0
   -0.7145    1.2375    0.0000 C   0  0  0  0  0  0  0  0  0  0  0  0
   -0.7145    2.0625    0.0000 O   0  0  0  0  0  0  0  0  0  0  0  0
   -1.4289    0.8250    0.0000 O   0  0  0  0  0  0  0  0  0  0  0  0
  1  2  1  0  0  0  0
  2  3  1  0  0  0  0
  3  4  2  0  0  0  0
  4  5  1  0  0  0  0
  5  6  1  0  0  0  0
  5  7  2  0  0  0  0
  7  8  1  0  0  0  0
  2  8  2  0  0  0  0
  8  9  1  0  0  0  0
  9 10  2  0  0  0  0
  9 11  1  0  0  0  0
M  END
>  <Catalog ID>
Z104484428

>  <Plate_ID>
2026997-X50-04

>  <Well>
A07

>  <V, µL>
50

>  <Conc, mM>
10

>  <Formula>
C7H6BrNO2

>  <MW>
216.032

>  <Purity>
98.11

>  <PO>
5A-64168

>  <MW_salt>
0

>  <Stereochem.data>
Achiral

>  <Geometric.isomer>
None

>  <Chemical name>
2-amino-5-bromobenzoic acid

>  <ClogP>
2,198

>  <logS>
-2,48

>  <HBD>
2

>  <HBA>
3

>  <TPSA>
63,32

>  <RotBonds>
1

$$$$

  Mrv1925 04172511382D          

 12 13  0  0  0  0            999 V2000
    0.0000   -0.0000    0.0000 C   0  0  0  0  0  0  0  0  0  0  0  0
    0.7145   -0.4125    0.0000 C   0  0  0  0  0  0  0  0  0  0  0  0
    1.4289    0.0000    0.0000 C   0  0  0  0  0  0  0  0  0  0  0  0
    2.1434   -0.4125    0.0000 C   0  0  0  0  0  0  0  0  0  0  0  0
    2.8579    0.0000    0.0000 C   0  0  0  0  0  0  0  0  0  0  0  0
    3.5724   -0.4125    0.0000 C   0  0  0  0  0  0  0  0  0  0  0  0
    3.5724   -1.2375    0.0000 C   0  0  0  0  0  0  0  0  0  0  0  0
    2.8579   -1.6500    0.0000 C   0  0  0  0  0  0  0  0  0  0  0  0
    2.1434   -1.2375    0.0000 C   0  0  0  0  0  0  0  0  0  0  0  0
    1.4289   -1.6500    0.0000 N   0  0  0  0  0  0  0  0  0  0  0  0
    0.7145   -1.2375    0.0000 C   0  0  0  0  0  0  0  0  0  0  0  0
    0.0000   -1.6500    0.0000 O   0  0  0  0  0  0  0  0  0  0  0  0
  1  2  1  0  0  0  0
  2  3  2  0  0  0  0
  3  4  1  0  0  0  0
  4  5  1  0  0  0  0
  5  6  2  0  0  0  0
  6  7  1  0  0  0  0
  7  8  2  0  0  0  0
  8  9  1  0  0  0  0
  4  9  2  0  0  0  0
  9 10  1  0  0  0  0
 10 11  1  0  0  0  0
  2 11  1  0  0  0  0
 11 12  2  0  0  0  0
M  END
>  <Catalog ID>
Z1198181962

>  <Plate_ID>
2026997-X50-04

>  <Well>
B07

>  <V, µL>
50

>  <Conc, mM>
10

>  <Formula>
C10H9NO

>  <MW>
159.1846

>  <Purity>
100

>  <PO>
5A-64168

>  <MW_salt>
0

>  <Stereochem.data>
Achiral

>  <Geometric.isomer>
None

>  <Chemical name>
3-methyl-1,2-dihydroquinolin-2-one

>  <ClogP>
1,311

>  <logS>
-2,89

>  <HBD>
1

>  <HBA>
1

>  <TPSA>
29,1

>  <RotBonds>
0

$$$$

  Mrv1925 04172511382D          

 13 14  0  0  0  0            999 V2000
    0.0768   -2.3215    0.0000 C   0  0  0  0  0  0  0  0  0  0  0  0
    0.8838   -2.1500    0.0000 C   0  0  0  0  0  0  0  0  0  0  0  0
    1.4358   -2.7631    0.0000 O   0  0  0  0  0  0  0  0  0  0  0  0
    1.1387   -1.3654    0.0000 C   0  0  0  0  0  0  0  0  0  0  0  0
    0.6538   -0.6979    0.0000 C   0  0  0  0  0  0  0  0  0  0  0  0
    1.1387   -0.0305    0.0000 N   0  0  0  0  0  0  0  0  0  0  0  0
    1.9233   -0.2854    0.0000 C   0  0  0  0  0  0  0  0  0  0  0  0
    2.6378    0.1271    0.0000 C   0  0  0  0  0  0  0  0  0  0  0  0
    3.3523   -0.2854    0.0000 C   0  0  0  0  0  0  0  0  0  0  0  0
    4.0668    0.1271    0.0000 F   0  0  0  0  0  0  0  0  0  0  0  0
    3.3523   -1.1104    0.0000 C   0  0  0  0  0  0  0  0  0  0  0  0
    2.6378   -1.5229    0.0000 C   0  0  0  0  0  0  0  0  0  0  0  0
    1.9233   -1.1104    0.0000 C   0  0  0  0  0  0  0  0  0  0  0  0
  1  2  1  0  0  0  0
  2  3  2  0  0  0  0
  2  4  1  0  0  0  0
  4  5  2  0  0  0  0
  5  6  1  0  0  0  0
  6  7  1  0  0  0  0
  7  8  1  0  0  0  0
  8  9  2  0  0  0  0
  9 10  1  0  0  0  0
  9 11  1  0  0  0  0
 11 12  2  0  0  0  0
 12 13  1  0  0  0  0
  4 13  1  0  0  0  0
  7 13  2  0  0  0  0
M  END
>  <Catalog ID>
Z234897299

>  <Plate_ID>
2026997-X50-04

>  <Well>
C07

>  <V, µL>
50

>  <Conc, mM>
10

>  <Formula>
C10H8FNO

>  <MW>
177.175

>  <Purity>
100

>  <PO>
5A-64168

>  <MW_salt>
0

>  <Stereochem.data>
Achiral

>  <Geometric.isomer>
None

>  <Chemical name>
1-(6-fluoro-1H-indol-3-yl)ethan-1-one

>  <ClogP>
2,198

>  <logS>
-2,85

>  <HBD>
1

>  <HBA>
1

>  <TPSA>
32,86

>  <RotBonds>
1

$$$$

  Mrv1925 04172511382D          

 16 18  0  0  0  0            999 V2000
    2.0701    1.1104    0.0000 C   0  0  0  0  0  0  0  0  0  0  0  0
    1.3556    0.6979    0.0000 C   0  0  0  0  0  0  0  0  0  0  0  0
    0.6411    1.1104    0.0000 C   0  0  0  0  0  0  0  0  0  0  0  0
   -0.1435    0.8555    0.0000 O   0  0  0  0  0  0  0  0  0  0  0  0
   -0.6284    1.5229    0.0000 C   0  0  0  0  0  0  0  0  0  0  0  0
   -0.1435    2.1904    0.0000 O   0  0  0  0  0  0  0  0  0  0  0  0
    0.6411    1.9354    0.0000 C   0  0  0  0  0  0  0  0  0  0  0  0
    1.3556    2.3479    0.0000 C   0  0  0  0  0  0  0  0  0  0  0  0
    2.0701    1.9354    0.0000 C   0  0  0  0  0  0  0  0  0  0  0  0
    2.7845    2.3479    0.0000 C   0  0  0  0  0  0  0  0  0  0  0  0
    2.7845    3.1729    0.0000 N   0  0  0  0  0  0  0  0  0  0  0  0
    3.4990    3.5854    0.0000 C   0  0  0  0  0  0  0  0  0  0  0  0
    3.5852    4.4059    0.0000 C   0  0  0  0  0  0  0  0  0  0  0  0
    4.3922    4.5775    0.0000 C   0  0  0  0  0  0  0  0  0  0  0  0
    4.8047    3.8630    0.0000 C   0  0  0  0  0  0  0  0  0  0  0  0
    4.2527    3.2499    0.0000 C   0  0  0  0  0  0  0  0  0  0  0  0
  1  2  1  0  0  0  0
  2  3  2  0  0  0  0
  3  4  1  0  0  0  0
  4  5  1  0  0  0  0
  5  6  1  0  0  0  0
  6  7  1  0  0  0  0
  3  7  1  0  0  0  0
  7  8  2  0  0  0  0
  8  9  1  0  0  0  0
  1  9  2  0  0  0  0
  9 10  1  0  0  0  0
 10 11  1  0  0  0  0
 11 12  1  0  0  0  0
 12 13  1  0  0  0  0
 13 14  1  0  0  0  0
 14 15  1  0  0  0  0
 15 16  1  0  0  0  0
 12 16  1  0  0  0  0
M  END
>  <Catalog ID>
Z57326449

>  <Plate_ID>
2026997-X50-04

>  <Well>
D07

>  <V, µL>
50

>  <Conc, mM>
10

>  <Formula>
C13H17NO2

>  <MW>
219.2796

>  <Purity>
96.24

>  <PO>
5A-64168

>  <MW_salt>
0

>  <Stereochem.data>
Achiral

>  <Geometric.isomer>
None

>  <Chemical name>
N-[(1,3-dioxaindan-5-yl)methyl]cyclopentanamine

>  <ClogP>
2,947

>  <logS>
-2,755

>  <HBD>
1

>  <HBA>
3

>  <TPSA>
30,49

>  <RotBonds>
3

$$$$

  Mrv1925 04172511382D          

 16 17  0  0  0  0            999 V2000
    0.0000    0.0000    0.0000 C   0  0  0  0  0  0  0  0  0  0  0  0
    0.7145   -0.4125    0.0000 C   0  0  0  0  0  0  0  0  0  0  0  0
    1.4289    0.0000    0.0000 O   0  0  0  0  0  0  0  0  0  0  0  0
    0.7145   -1.2375    0.0000 N   0  0  0  0  0  0  0  0  0  0  0  0
    1.4289   -1.6500    0.0000 C   0  0  0  0  0  0  0  0  0  0  0  0
    1.4289   -2.4750    0.0000 C   0  0  0  0  0  0  0  0  0  0  0  0
    0.7145   -2.8875    0.0000 N   0  0  0  0  0  0  0  0  0  0  0  0
    0.0000   -2.4750    0.0000 C   0  0  0  0  0  0  0  0  0  0  0  0
    0.0000   -1.6500    0.0000 C   0  0  0  0  0  0  0  0  0  0  0  0
    0.7145   -3.7125    0.0000 C   0  0  0  0  0  0  0  0  0  0  0  0
    1.4289   -4.1250    0.0000 C   0  0  0  0  0  0  0  0  0  0  0  0
    1.4289   -4.9500    0.0000 C   0  0  0  0  0  0  0  0  0  0  0  0
    0.7145   -5.3625    0.0000 C   0  0  0  0  0  0  0  0  0  0  0  0
    0.7145   -6.1875    0.0000 O   0  0  0  0  0  0  0  0  0  0  0  0
    0.0000   -4.9500    0.0000 C   0  0  0  0  0  0  0  0  0  0  0  0
    0.0000   -4.1250    0.0000 C   0  0  0  0  0  0  0  0  0  0  0  0
  1  2  1  0  0  0  0
  2  3  2  0  0  0  0
  2  4  1  0  0  0  0
  4  5  1  0  0  0  0
  5  6  1  0  0  0  0
  6  7  1  0  0  0  0
  7  8  1  0  0  0  0
  8  9  1  0  0  0  0
  4  9  1  0  0  0  0
  7 10  1  0  0  0  0
 10 11  1  0  0  0  0
 11 12  2  0  0  0  0
 12 13  1  0  0  0  0
 13 14  1  0  0  0  0
 13 15  2  0  0  0  0
 15 16  1  0  0  0  0
 10 16  2  0  0  0  0
M  END
>  <Catalog ID>
Z28269747

>  <Plate_ID>
2026997-X50-04

>  <Well>
E07

>  <V, µL>
50

>  <Conc, mM>
10

>  <Formula>
C12H16N2O2

>  <MW>
220.2676

>  <Purity>
100

>  <PO>
5A-64168

>  <MW_salt>
0

>  <Stereochem.data>
Achiral

>  <Geometric.isomer>
None

>  <Chemical name>
1-[4-(4-hydroxyphenyl)piperazin-1-yl]ethan-1-one

>  <ClogP>
0,512

>  <logS>
-1,677

>  <HBD>
1

>  <HBA>
3

>  <TPSA>
43,78

>  <RotBonds>
1

$$$$

  Mrv1925 04172511382D          

 10 10  0  0  0  0            999 V2000
    0.0000    3.3000    0.0000 N   0  0  0  0  0  0  0  0  0  0  0  0
    0.0000    2.4750    0.0000 N   0  0  0  0  0  0  0  0  0  0  0  0
    0.7145    2.0625    0.0000 C   0  0  0  0  0  0  0  0  0  0  0  0
    1.4289    2.4750    0.0000 O   0  0  0  0  0  0  0  0  0  0  0  0
    0.7145    1.2375    0.0000 C   0  0  0  0  0  0  0  0  0  0  0  0
    1.4289    0.8250    0.0000 C   0  0  0  0  0  0  0  0  0  0  0  0
    1.4289   -0.0000    0.0000 C   0  0  0  0  0  0  0  0  0  0  0  0
    0.7145   -0.4125    0.0000 N   0  0  0  0  0  0  0  0  0  0  0  0
    0.0000    0.0000    0.0000 C   0  0  0  0  0  0  0  0  0  0  0  0
    0.0000    0.8250    0.0000 C   0  0  0  0  0  0  0  0  0  0  0  0
  1  2  1  0  0  0  0
  2  3  1  0  0  0  0
  3  4  2  0  0  0  0
  3  5  1  0  0  0  0
  5  6  1  0  0  0  0
  6  7  2  0  0  0  0
  7  8  1  0  0  0  0
  8  9  2  0  0  0  0
  9 10  1  0  0  0  0
  5 10  2  0  0  0  0
M  END
>  <Catalog ID>
Z58981801

>  <Plate_ID>
2026997-X50-04

>  <Well>
F07

>  <V, µL>
50

>  <Conc, mM>
10

>  <Formula>
C6H7N3O

>  <MW>
137.1393

>  <Purity>
95

>  <PO>
5A-64168

>  <MW_salt>
0

>  <Stereochem.data>
Achiral

>  <Geometric.isomer>
None

>  <Chemical name>
pyridine-4-carbohydrazide

>  <ClogP>
-0,668

>  <logS>
-0,51

>  <HBD>
2

>  <HBA>
3

>  <TPSA>
68,01

>  <RotBonds>
1

$$$$

  Mrv1925 04172511382D          

 11 11  0  0  0  0            999 V2000
    1.4289    2.4750    0.0000 O   0  0  0  0  0  0  0  0  0  0  0  0
    0.7145    2.0625    0.0000 C   0  0  0  0  0  0  0  0  0  0  0  0
    0.0000    2.4750    0.0000 N   0  0  0  0  0  0  0  0  0  0  0  0
    0.0000    3.3000    0.0000 O   0  0  0  0  0  0  0  0  0  0  0  0
    0.7145    1.2375    0.0000 C   0  0  0  0  0  0  0  0  0  0  0  0
    1.4289    0.8250    0.0000 C   0  0  0  0  0  0  0  0  0  0  0  0
    1.4289   -0.0000    0.0000 C   0  0  0  0  0  0  0  0  0  0  0  0
    0.7145   -0.4125    0.0000 C   0  0  0  0  0  0  0  0  0  0  0  0
    0.0000    0.0000    0.0000 C   0  0  0  0  0  0  0  0  0  0  0  0
    0.0000    0.8250    0.0000 C   0  0  0  0  0  0  0  0  0  0  0  0
   -0.7145    1.2375    0.0000 O   0  0  0  0  0  0  0  0  0  0  0  0
  1  2  2  0  0  0  0
  2  3  1  0  0  0  0
  3  4  1  0  0  0  0
  2  5  1  0  0  0  0
  5  6  1  0  0  0  0
  6  7  2  0  0  0  0
  7  8  1  0  0  0  0
  8  9  2  0  0  0  0
  9 10  1  0  0  0  0
  5 10  2  0  0  0  0
 10 11  1  0  0  0  0
M  END
>  <Catalog ID>
Z57842350

>  <Plate_ID>
2026997-X50-04

>  <Well>
G07

>  <V, µL>
50

>  <Conc, mM>
10

>  <Formula>
C7H7NO3

>  <MW>
153.1354

>  <Purity>
95

>  <PO>
5A-64168

>  <MW_salt>
0

>  <Stereochem.data>
Achiral

>  <Geometric.isomer>
None

>  <Chemical name>
N,2-dihydroxybenzamide

>  <ClogP>
0,877

>  <logS>
-1,04

>  <HBD>
3

>  <HBA>
3

>  <TPSA>
69,56

>  <RotBonds>
1

$$$$

  Mrv1925 04172511382D          

 12 12  0  0  0  0            999 V2000
   -0.7145    3.7125    0.0000 N   0  0  0  0  0  0  0  0  0  0  0  0
    0.0000    3.3000    0.0000 N   0  0  0  0  0  0  0  0  0  0  0  0
    0.0000    2.4750    0.0000 C   0  0  0  0  0  0  0  0  0  0  0  0
   -0.7145    2.0625    0.0000 O   0  0  0  0  0  0  0  0  0  0  0  0
    0.7145    2.0625    0.0000 C   0  0  0  0  0  0  0  0  0  0  0  0
    0.7145    1.2375    0.0000 C   0  0  0  0  0  0  0  0  0  0  0  0
    1.4289    0.8250    0.0000 C   0  0  0  0  0  0  0  0  0  0  0  0
    1.4289   -0.0000    0.0000 C   0  0  0  0  0  0  0  0  0  0  0  0
    0.7145   -0.4125    0.0000 C   0  0  0  0  0  0  0  0  0  0  0  0
    0.7145   -1.2375    0.0000 F   0  0  0  0  0  0  0  0  0  0  0  0
    0.0000    0.0000    0.0000 C   0  0  0  0  0  0  0  0  0  0  0  0
    0.0000    0.8250    0.0000 C   0  0  0  0  0  0  0  0  0  0  0  0
  1  2  1  0  0  0  0
  2  3  1  0  0  0  0
  3  4  2  0  0  0  0
  3  5  1  0  0  0  0
  5  6  1  0  0  0  0
  6  7  1  0  0  0  0
  7  8  2  0  0  0  0
  8  9  1  0  0  0  0
  9 10  1  0  0  0  0
  9 11  2  0  0  0  0
 11 12  1  0  0  0  0
  6 12  2  0  0  0  0
M  END
>  <Catalog ID>
Z56347387

>  <Plate_ID>
2026997-X50-04

>  <Well>
H07

>  <V, µL>
50

>  <Conc, mM>
10

>  <Formula>
C8H9FN2O

>  <MW>
168.1683

>  <Purity>
100

>  <PO>
5A-64168

>  <MW_salt>
0

>  <Stereochem.data>
Achiral

>  <Geometric.isomer>
None

>  <Chemical name>
2-(4-fluorophenyl)acetohydrazide

>  <ClogP>
0,287

>  <logS>
-1,49

>  <HBD>
2

>  <HBA>
2

>  <TPSA>
55,12

>  <RotBonds>
2

$$$$

  Mrv1925 04172511382D          

 14 16  0  0  0  0            999 V2000
    0.7117   -3.5424    0.0000 O   0  0  0  0  0  0  0  0  0  0  0  0
    0.9666   -2.7578    0.0000 C   0  0  0  0  0  0  0  0  0  0  0  0
    0.4146   -2.1447    0.0000 N   0  0  0  0  0  0  0  0  0  0  0  0
    0.6695   -1.3601    0.0000 C   0  0  0  0  0  0  0  0  0  0  0  0
    1.4765   -1.1885    0.0000 N   0  0  0  0  0  0  0  0  0  0  0  0
    2.0285   -1.8016    0.0000 C   0  0  0  0  0  0  0  0  0  0  0  0
    2.8535   -1.8016    0.0000 C   0  0  0  0  0  0  0  0  0  0  0  0
    3.4056   -1.1885    0.0000 C   0  0  0  0  0  0  0  0  0  0  0  0
    4.2125   -1.3601    0.0000 C   0  0  0  0  0  0  0  0  0  0  0  0
    4.4675   -2.1447    0.0000 C   0  0  0  0  0  0  0  0  0  0  0  0
    3.9154   -2.7578    0.0000 C   0  0  0  0  0  0  0  0  0  0  0  0
    3.1085   -2.5862    0.0000 C   0  0  0  0  0  0  0  0  0  0  0  0
    2.4410   -3.0712    0.0000 O   0  0  0  0  0  0  0  0  0  0  0  0
    1.7736   -2.5862    0.0000 C   0  0  0  0  0  0  0  0  0  0  0  0
  1  2  2  0  0  0  0
  2  3  1  0  0  0  0
  3  4  1  0  0  0  0
  4  5  2  0  0  0  0
  5  6  1  0  0  0  0
  6  7  1  0  0  0  0
  7  8  2  0  0  0  0
  8  9  1  0  0  0  0
  9 10  2  0  0  0  0
 10 11  1  0  0  0  0
 11 12  2  0  0  0  0
  7 12  1  0  0  0  0
 12 13  1  0  0  0  0
 13 14  1  0  0  0  0
  2 14  1  0  0  0  0
  6 14  2  0  0  0  0
M  END
>  <Catalog ID>
Z62452555

>  <Plate_ID>
2026997-X50-04

>  <Well>
A08

>  <V, µL>
50

>  <Conc, mM>
10

>  <Formula>
C10H6N2O2

>  <MW>
186.1668

>  <Purity>
100

>  <PO>
5A-64168

>  <MW_salt>
0

>  <Stereochem.data>
Achiral

>  <Geometric.isomer>
None

>  <Chemical name>
8-oxa-3,5-diazatricyclo[7.4.0.0,2,7]trideca-1(13),2(7),3,9,11-pentaen-6-one

>  <ClogP>
0,865

>  <logS>
-2,76

>  <HBD>
1

>  <HBA>
2

>  <TPSA>
54,6

>  <RotBonds>
0

$$$$

  Mrv1925 04172511382D          

 13 14  0  0  0  0            999 V2000
    3.2789    2.0625    0.0000 C   0  0  0  0  0  0  0  0  0  0  0  0
    3.2789    1.2375    0.0000 C   0  0  0  0  0  0  0  0  0  0  0  0
    3.9934    0.8250    0.0000 C   0  0  0  0  0  0  0  0  0  0  0  0
    3.9934    0.0000    0.0000 C   0  0  0  0  0  0  0  0  0  0  0  0
    3.2789   -0.4125    0.0000 C   0  0  0  0  0  0  0  0  0  0  0  0
    2.5645    0.0000    0.0000 C   0  0  0  0  0  0  0  0  0  0  0  0
    1.7798   -0.2549    0.0000 N   0  0  0  0  0  0  0  0  0  0  0  0
    1.2949    0.4125    0.0000 C   0  0  0  0  0  0  0  0  0  0  0  0
    1.7798    1.0799    0.0000 C   0  0  0  0  0  0  0  0  0  0  0  0
    2.5645    0.8250    0.0000 C   0  0  0  0  0  0  0  0  0  0  0  0
    0.4699    0.4125    0.0000 C   0  0  0  0  0  0  0  0  0  0  0  0
    0.0574   -0.3020    0.0000 O   0  0  0  0  0  0  0  0  0  0  0  0
    0.0574    1.1270    0.0000 O   0  0  0  0  0  0  0  0  0  0  0  0
  1  2  1  0  0  0  0
  2  3  1  0  0  0  0
  3  4  2  0  0  0  0
  4  5  1  0  0  0  0
  5  6  2  0  0  0  0
  6  7  1  0  0  0  0
  7  8  1  0  0  0  0
  8  9  2  0  0  0  0
  9 10  1  0  0  0  0
  2 10  2  0  0  0  0
  6 10  1  0  0  0  0
  8 11  1  0  0  0  0
 11 12  2  0  0  0  0
 11 13  1  0  0  0  0
M  END
>  <Catalog ID>
Z119989626

>  <Plate_ID>
2026997-X50-04

>  <Well>
B08

>  <V, µL>
50

>  <Conc, mM>
10

>  <Formula>
C10H9NO2

>  <MW>
175.184

>  <Purity>
100

>  <PO>
5A-64168

>  <MW_salt>
0

>  <Stereochem.data>
Achiral

>  <Geometric.isomer>
None

>  <Chemical name>
4-methyl-1H-indole-2-carboxylic acid

>  <ClogP>
2,63

>  <logS>
-3,17

>  <HBD>
2

>  <HBA>
2

>  <TPSA>
53,09

>  <RotBonds>
1

$$$$

  Mrv1925 04172511382D          

 10 10  0  0  0  0            999 V2000
    0.0000    2.4750    0.0000 C   0  0  0  0  0  0  0  0  0  0  0  0
    0.7145    2.0625    0.0000 O   0  0  0  0  0  0  0  0  0  0  0  0
    0.7145    1.2375    0.0000 C   0  0  0  0  0  0  0  0  0  0  0  0
    1.4289    0.8250    0.0000 C   0  0  0  0  0  0  0  0  0  0  0  0
    1.4289   -0.0000    0.0000 C   0  0  0  0  0  0  0  0  0  0  0  0
    0.7145   -0.4125    0.0000 C   0  0  0  0  0  0  0  0  0  0  0  0
    0.7145   -1.2375    0.0000 N   0  0  0  0  0  0  0  0  0  0  0  0
    0.0000    0.0000    0.0000 C   0  0  0  0  0  0  0  0  0  0  0  0
    0.0000    0.8250    0.0000 C   0  0  0  0  0  0  0  0  0  0  0  0
   -0.7145    1.2375    0.0000 F   0  0  0  0  0  0  0  0  0  0  0  0
  1  2  1  0  0  0  0
  2  3  1  0  0  0  0
  3  4  1  0  0  0  0
  4  5  2  0  0  0  0
  5  6  1  0  0  0  0
  6  7  1  0  0  0  0
  6  8  2  0  0  0  0
  8  9  1  0  0  0  0
  3  9  2  0  0  0  0
  9 10  1  0  0  0  0
M  END
>  <Catalog ID>
Z362635046

>  <Plate_ID>
2026997-X50-04

>  <Well>
C08

>  <V, µL>
50

>  <Conc, mM>
10

>  <Formula>
C7H8FNO

>  <MW>
141.1429

>  <Purity>
95

>  <PO>
5A-64168

>  <MW_salt>
0

>  <Stereochem.data>
Achiral

>  <Geometric.isomer>
None

>  <Chemical name>
3-fluoro-4-methoxyaniline

>  <ClogP>
1,159

>  <logS>
-1,51

>  <HBD>
1

>  <HBA>
2

>  <TPSA>
35,25

>  <RotBonds>
1

$$$$

  Mrv1925 04172511382D          

 10 10  0  0  0  0            999 V2000
    0.0000    2.4750    0.0000 O   0  0  0  0  0  0  0  0  0  0  0  0
    0.7145    2.0625    0.0000 C   0  0  0  0  0  0  0  0  0  0  0  0
    1.4289    2.4750    0.0000 O   0  0  0  0  0  0  0  0  0  0  0  0
    0.7145    1.2375    0.0000 C   0  0  0  0  0  0  0  0  0  0  0  0
    1.4289    0.8250    0.0000 C   0  0  0  0  0  0  0  0  0  0  0  0
    1.4289   -0.0000    0.0000 C   0  0  0  0  0  0  0  0  0  0  0  0
    0.7145   -0.4125    0.0000 C   0  0  0  0  0  0  0  0  0  0  0  0
    0.7145   -1.2375    0.0000 Br  0  0  0  0  0  0  0  0  0  0  0  0
    0.0000    0.0000    0.0000 C   0  0  0  0  0  0  0  0  0  0  0  0
    0.0000    0.8250    0.0000 C   0  0  0  0  0  0  0  0  0  0  0  0
  1  2  2  0  0  0  0
  2  3  1  0  0  0  0
  2  4  1  0  0  0  0
  4  5  1  0  0  0  0
  5  6  2  0  0  0  0
  6  7  1  0  0  0  0
  7  8  1  0  0  0  0
  7  9  2  0  0  0  0
  9 10  1  0  0  0  0
  4 10  2  0  0  0  0
M  END
>  <Catalog ID>
Z57127530

>  <Plate_ID>
2026997-X50-04

>  <Well>
D08

>  <V, µL>
50

>  <Conc, mM>
10

>  <Formula>
C7H5BrO2

>  <MW>
201.0174

>  <Purity>
100

>  <PO>
5A-64168

>  <MW_salt>
0

>  <Stereochem.data>
Achiral

>  <Geometric.isomer>
None

>  <Chemical name>
4-bromobenzoic acid

>  <ClogP>
2,846

>  <logS>
-2,65

>  <HBD>
1

>  <HBA>
2

>  <TPSA>
37,3

>  <RotBonds>
1

$$$$

  Mrv1925 04172511382D          

 10 10  0  0  0  0            999 V2000
   -0.8612    3.5893    0.0000 O   0  0  0  0  0  0  0  0  0  0  0  0
   -0.1467    3.1768    0.0000 C   0  0  0  0  0  0  0  0  0  0  0  0
    0.5678    3.5893    0.0000 O   0  0  0  0  0  0  0  0  0  0  0  0
   -0.1467    2.3518    0.0000 C   0  0  0  0  0  0  0  0  0  0  0  0
    0.5678    1.9393    0.0000 N   0  0  0  0  0  0  0  0  0  0  0  0
    0.5678    1.1143    0.0000 C   0  0  0  0  0  0  0  0  0  0  0  0
    1.2352    0.6294    0.0000 C   0  0  0  0  0  0  0  0  0  0  0  0
    0.9803   -0.1553    0.0000 C   0  0  0  0  0  0  0  0  0  0  0  0
    0.1553   -0.1553    0.0000 C   0  0  0  0  0  0  0  0  0  0  0  0
   -0.0997    0.6294    0.0000 C   0  0  0  0  0  0  0  0  0  0  0  0
  1  2  2  0  0  0  0
  2  3  1  0  0  0  0
  2  4  1  0  0  0  0
  4  5  1  0  0  0  0
  5  6  1  0  0  0  0
  6  7  1  0  0  0  0
  7  8  1  0  0  0  0
  8  9  1  0  0  0  0
  9 10  1  0  0  0  0
  6 10  1  0  0  0  0
M  END
>  <Catalog ID>
Z359505658

>  <Plate_ID>
2026997-X50-04

>  <Well>
E08

>  <V, µL>
50

>  <Conc, mM>
10

>  <Formula>
C7H13NO2

>  <MW>
143.1836

>  <Purity>
100

>  <PO>
5A-64168

>  <MW_salt>
0

>  <Stereochem.data>
Achiral

>  <Geometric.isomer>
None

>  <Chemical name>
2-(cyclopentylamino)acetic acid

>  <ClogP>
-1,652

>  <logS>
-0,61

>  <HBD>
2

>  <HBA>
3

>  <TPSA>
49,33

>  <RotBonds>
3

$$$$

  Mrv1925 04172511382D          

 12 13  0  0  0  0            999 V2000
    4.0668    3.1729    0.0000 O   0  0  0  0  0  0  0  0  0  0  0  0
    4.0668    2.3479    0.0000 C   0  0  0  0  0  0  0  0  0  0  0  0
    4.7812    1.9354    0.0000 O   0  0  0  0  0  0  0  0  0  0  0  0
    3.3523    1.9354    0.0000 C   0  0  0  0  0  0  0  0  0  0  0  0
    3.3523    1.1104    0.0000 C   0  0  0  0  0  0  0  0  0  0  0  0
    2.6378    0.6979    0.0000 C   0  0  0  0  0  0  0  0  0  0  0  0
    1.9233    1.1104    0.0000 C   0  0  0  0  0  0  0  0  0  0  0  0
    1.1387    0.8555    0.0000 O   0  0  0  0  0  0  0  0  0  0  0  0
    0.6538    1.5229    0.0000 C   0  0  0  0  0  0  0  0  0  0  0  0
    1.1387    2.1904    0.0000 C   0  0  0  0  0  0  0  0  0  0  0  0
    1.9233    1.9354    0.0000 C   0  0  0  0  0  0  0  0  0  0  0  0
    2.6378    2.3479    0.0000 C   0  0  0  0  0  0  0  0  0  0  0  0
  1  2  2  0  0  0  0
  2  3  1  0  0  0  0
  2  4  1  0  0  0  0
  4  5  2  0  0  0  0
  5  6  1  0  0  0  0
  6  7  2  0  0  0  0
  7  8  1  0  0  0  0
  8  9  1  0  0  0  0
  9 10  1  0  0  0  0
 10 11  1  0  0  0  0
  7 11  1  0  0  0  0
 11 12  2  0  0  0  0
  4 12  1  0  0  0  0
M  END
>  <Catalog ID>
Z285150320

>  <Plate_ID>
2026997-X50-04

>  <Well>
F08

>  <V, µL>
50

>  <Conc, mM>
10

>  <Formula>
C9H8O3

>  <MW>
164.158

>  <Purity>
100

>  <PO>
5A-64168

>  <MW_salt>
0

>  <Stereochem.data>
Achiral

>  <Geometric.isomer>
None

>  <Chemical name>
2,3-dihydro-1-benzofuran-5-carboxylic acid

>  <ClogP>
2,158

>  <logS>
-1,88

>  <HBD>
1

>  <HBA>
3

>  <TPSA>
46,53

>  <RotBonds>
1

$$$$

  Mrv1925 04172511382D          

  9  9  0  0  0  0            999 V2000
    0.5678    2.7643    0.0000 N   0  0  0  0  0  0  0  0  0  0  0  0
    0.5678    1.9393    0.0000 S   0  0  0  0  0  0  0  0  0  0  0  0
   -0.2572    1.9393    0.0000 O   0  0  0  0  0  0  0  0  0  0  0  0
    1.3928    1.9393    0.0000 O   0  0  0  0  0  0  0  0  0  0  0  0
    0.5678    1.1143    0.0000 C   0  0  0  0  0  0  0  0  0  0  0  0
    1.2352    0.6294    0.0000 N   0  0  0  0  0  0  0  0  0  0  0  0
    0.9803   -0.1553    0.0000 C   0  0  0  0  0  0  0  0  0  0  0  0
    0.1553   -0.1553    0.0000 C   0  0  0  0  0  0  0  0  0  0  0  0
   -0.0997    0.6294    0.0000 N   0  0  0  0  0  0  0  0  0  0  0  0
  1  2  1  0  0  0  0
  2  3  2  0  0  0  0
  2  4  2  0  0  0  0
  2  5  1  0  0  0  0
  5  6  2  0  0  0  0
  6  7  1  0  0  0  0
  7  8  2  0  0  0  0
  8  9  1  0  0  0  0
  5  9  1  0  0  0  0
M  END
>  <Catalog ID>
Z1203748449

>  <Plate_ID>
2026997-X50-04

>  <Well>
G08

>  <V, µL>
50

>  <Conc, mM>
10

>  <Formula>
C3H5N3O2S

>  <MW>
147.1557

>  <Purity>
100

>  <PO>
5A-64168

>  <MW_salt>
0

>  <Stereochem.data>
Achiral

>  <Geometric.isomer>
None

>  <Chemical name>
1H-imidazole-2-sulfonamide

>  <ClogP>
-0,845

>  <logS>
-0,8

>  <HBD>
2

>  <HBA>
3

>  <TPSA>
88,84

>  <RotBonds>
1

$$$$

  Mrv1925 04172511382D          

 11 12  0  0  0  0            999 V2000
   -0.5837   -1.4124    0.0000 C   0  0  0  0  0  0  0  0  0  0  0  0
   -0.1712   -0.6979    0.0000 N   0  0  0  0  0  0  0  0  0  0  0  0
    0.6538   -0.6979    0.0000 C   0  0  0  0  0  0  0  0  0  0  0  0
    1.1387   -0.0305    0.0000 N   0  0  0  0  0  0  0  0  0  0  0  0
    1.9233   -0.2854    0.0000 C   0  0  0  0  0  0  0  0  0  0  0  0
    2.6378    0.1271    0.0000 C   0  0  0  0  0  0  0  0  0  0  0  0
    3.3523   -0.2854    0.0000 C   0  0  0  0  0  0  0  0  0  0  0  0
    3.3523   -1.1104    0.0000 C   0  0  0  0  0  0  0  0  0  0  0  0
    2.6378   -1.5229    0.0000 C   0  0  0  0  0  0  0  0  0  0  0  0
    1.9233   -1.1104    0.0000 C   0  0  0  0  0  0  0  0  0  0  0  0
    1.1387   -1.3654    0.0000 N   0  0  0  0  0  0  0  0  0  0  0  0
  1  2  1  0  0  0  0
  2  3  1  0  0  0  0
  3  4  2  0  0  0  0
  4  5  1  0  0  0  0
  5  6  1  0  0  0  0
  6  7  2  0  0  0  0
  7  8  1  0  0  0  0
  8  9  2  0  0  0  0
  9 10  1  0  0  0  0
  5 10  2  0  0  0  0
 10 11  1  0  0  0  0
  3 11  1  0  0  0  0
M  END
>  <Catalog ID>
Z56767838

>  <Plate_ID>
2026997-X50-04

>  <Well>
H08

>  <V, µL>
50

>  <Conc, mM>
10

>  <Formula>
C8H9N3

>  <MW>
147.1772

>  <Purity>
97.56

>  <PO>
5A-64168

>  <MW_salt>
0

>  <Stereochem.data>
Achiral

>  <Geometric.isomer>
None

>  <Chemical name>
N-methyl-1H-1,3-benzodiazol-2-amine

>  <ClogP>
2,036

>  <logS>
-2,41

>  <HBD>
2

>  <HBA>
2

>  <TPSA>
40,71

>  <RotBonds>
1

$$$$

  Mrv1925 04172511382D          

 12 13  0  0  0  0            999 V2000
    0.0768   -2.3215    0.0000 C   0  0  0  0  0  0  0  0  0  0  0  0
    0.8838   -2.1500    0.0000 C   0  0  0  0  0  0  0  0  0  0  0  0
    1.4358   -2.7631    0.0000 O   0  0  0  0  0  0  0  0  0  0  0  0
    1.1387   -1.3654    0.0000 C   0  0  0  0  0  0  0  0  0  0  0  0
    0.6538   -0.6979    0.0000 C   0  0  0  0  0  0  0  0  0  0  0  0
    1.1387   -0.0305    0.0000 N   0  0  0  0  0  0  0  0  0  0  0  0
    1.9233   -0.2854    0.0000 C   0  0  0  0  0  0  0  0  0  0  0  0
    2.6378    0.1271    0.0000 C   0  0  0  0  0  0  0  0  0  0  0  0
    3.3523   -0.2854    0.0000 C   0  0  0  0  0  0  0  0  0  0  0  0
    3.3523   -1.1104    0.0000 C   0  0  0  0  0  0  0  0  0  0  0  0
    2.6378   -1.5229    0.0000 C   0  0  0  0  0  0  0  0  0  0  0  0
    1.9233   -1.1104    0.0000 C   0  0  0  0  0  0  0  0  0  0  0  0
  1  2  1  0  0  0  0
  2  3  2  0  0  0  0
  2  4  1  0  0  0  0
  4  5  2  0  0  0  0
  5  6  1  0  0  0  0
  6  7  1  0  0  0  0
  7  8  2  0  0  0  0
  8  9  1  0  0  0  0
  9 10  2  0  0  0  0
 10 11  1  0  0  0  0
 11 12  2  0  0  0  0
  4 12  1  0  0  0  0
  7 12  1  0  0  0  0
M  END
>  <Catalog ID>
Z57337726

>  <Plate_ID>
2026997-X50-04

>  <Well>
A09

>  <V, µL>
50

>  <Conc, mM>
10

>  <Formula>
C10H9NO

>  <MW>
159.1846

>  <Purity>
100

>  <PO>
5A-64168

>  <MW_salt>
0

>  <Stereochem.data>
Achiral

>  <Geometric.isomer>
None

>  <Chemical name>
1-(1H-indol-3-yl)ethan-1-one

>  <ClogP>
1,979

>  <logS>
-2,56

>  <HBD>
1

>  <HBA>
1

>  <TPSA>
32,86

>  <RotBonds>
1

$$$$

  Mrv1925 04172511382D          

 13 15  0  0  0  0            999 V2000
    0.2702    0.1963    0.0000 O   0  0  0  0  0  0  0  0  0  0  0  0
    0.9377    0.6813    0.0000 C   0  0  0  0  0  0  0  0  0  0  0  0
    0.8514    1.5017    0.0000 C   0  0  0  0  0  0  0  0  0  0  0  0
    1.5189    1.9867    0.0000 C   0  0  0  0  0  0  0  0  0  0  0  0
    2.2725    1.6511    0.0000 C   0  0  0  0  0  0  0  0  0  0  0  0
    3.1987    1.9867    0.0000 C   0  0  0  0  0  0  0  0  0  0  0  0
    3.8661    1.5017    0.0000 C   0  0  0  0  0  0  0  0  0  0  0  0
    3.7799    0.6813    0.0000 C   0  0  0  0  0  0  0  0  0  0  0  0
    3.0262    0.3457    0.0000 C   0  0  0  0  0  0  0  0  0  0  0  0
    2.7713   -0.4389    0.0000 C   0  0  0  0  0  0  0  0  0  0  0  0
    1.9463   -0.4389    0.0000 C   0  0  0  0  0  0  0  0  0  0  0  0
    1.6913    0.3457    0.0000 N   0  0  0  0  0  0  0  0  0  0  0  0
    2.3588    0.8306    0.0000 C   0  0  0  0  0  0  0  0  0  0  0  0
  1  2  2  0  0  0  0
  2  3  1  0  0  0  0
  3  4  1  0  0  0  0
  4  5  1  0  0  0  0
  5  6  2  0  0  0  0
  6  7  1  0  0  0  0
  7  8  2  0  0  0  0
  8  9  1  0  0  0  0
  9 10  1  0  0  0  0
 10 11  1  0  0  0  0
 11 12  1  0  0  0  0
  2 12  1  0  0  0  0
 12 13  1  0  0  0  0
  9 13  2  0  0  0  0
  5 13  1  0  0  0  0
M  END
>  <Catalog ID>
Z1198154439

>  <Plate_ID>
2026997-X50-04

>  <Well>
B09

>  <V, µL>
50

>  <Conc, mM>
10

>  <Formula>
C11H11NO

>  <MW>
173.2111

>  <Purity>
96.31

>  <PO>
5A-64168

>  <MW_salt>
0

>  <Stereochem.data>
Achiral

>  <Geometric.isomer>
None

>  <Chemical name>
1-azatricyclo[6.3.1.0,4,12]dodeca-4(12),5,7-trien-11-one

>  <ClogP>
1,497

>  <logS>
-2,024

>  <HBD>
0

>  <HBA>
1

>  <TPSA>
20,31

>  <RotBonds>
0

$$$$

  Mrv1925 04172511382D          

 10 10  0  0  0  0            999 V2000
    0.0000    2.4750    0.0000 O   0  0  0  0  0  0  0  0  0  0  0  0
    0.7145    2.0625    0.0000 C   0  0  0  0  0  0  0  0  0  0  0  0
    1.4289    2.4750    0.0000 O   0  0  0  0  0  0  0  0  0  0  0  0
    0.7145    1.2375    0.0000 C   0  0  0  0  0  0  0  0  0  0  0  0
    1.4289    0.8250    0.0000 C   0  0  0  0  0  0  0  0  0  0  0  0
    1.4289   -0.0000    0.0000 C   0  0  0  0  0  0  0  0  0  0  0  0
    0.7145   -0.4125    0.0000 C   0  0  0  0  0  0  0  0  0  0  0  0
    0.7145   -1.2375    0.0000 O   0  0  0  0  0  0  0  0  0  0  0  0
    0.0000    0.0000    0.0000 C   0  0  0  0  0  0  0  0  0  0  0  0
    0.0000    0.8250    0.0000 C   0  0  0  0  0  0  0  0  0  0  0  0
  1  2  2  0  0  0  0
  2  3  1  0  0  0  0
  2  4  1  0  0  0  0
  4  5  1  0  0  0  0
  5  6  2  0  0  0  0
  6  7  1  0  0  0  0
  7  8  1  0  0  0  0
  7  9  2  0  0  0  0
  9 10  1  0  0  0  0
  4 10  2  0  0  0  0
M  END
>  <Catalog ID>
Z104498098

>  <Plate_ID>
2026997-X50-04

>  <Well>
C09

>  <V, µL>
50

>  <Conc, mM>
10

>  <Formula>
C7H6O3

>  <MW>
138.1207

>  <Purity>
95

>  <PO>
5A-64168

>  <MW_salt>
0

>  <Stereochem.data>
Achiral

>  <Geometric.isomer>
None

>  <Chemical name>
4-hydroxybenzoic acid

>  <ClogP>
1,557

>  <logS>
-1,12

>  <HBD>
2

>  <HBA>
3

>  <TPSA>
57,53

>  <RotBonds>
1

$$$$

  Mrv1925 04172511382D          

 16 17  0  0  0  0            999 V2000
    0.7145   -0.4125    0.0000 O   0  0  0  0  0  0  0  0  0  0  0  0
    1.4289    0.0000    0.0000 C   0  0  0  0  0  0  0  0  0  0  0  0
    1.4289    0.8250    0.0000 O   0  0  0  0  0  0  0  0  0  0  0  0
    2.1434   -0.4125    0.0000 C   0  0  0  0  0  0  0  0  0  0  0  0
    2.1434   -1.2375    0.0000 C   0  0  0  0  0  0  0  0  0  0  0  0
    2.8579   -1.6500    0.0000 C   0  0  0  0  0  0  0  0  0  0  0  0
    2.8579   -2.4750    0.0000 C   0  0  0  0  0  0  0  0  0  0  0  0
    2.1434   -2.8875    0.0000 C   0  0  0  0  0  0  0  0  0  0  0  0
    1.4289   -2.4750    0.0000 C   0  0  0  0  0  0  0  0  0  0  0  0
    1.4289   -1.6500    0.0000 C   0  0  0  0  0  0  0  0  0  0  0  0
    2.8579    0.0000    0.0000 C   0  0  0  0  0  0  0  0  0  0  0  0
    2.8579    0.8250    0.0000 C   0  0  0  0  0  0  0  0  0  0  0  0
    3.5724    1.2375    0.0000 C   0  0  0  0  0  0  0  0  0  0  0  0
    4.2868    0.8250    0.0000 C   0  0  0  0  0  0  0  0  0  0  0  0
    4.2868    0.0000    0.0000 C   0  0  0  0  0  0  0  0  0  0  0  0
    3.5724   -0.4125    0.0000 C   0  0  0  0  0  0  0  0  0  0  0  0
  1  2  2  0  0  0  0
  2  3  1  0  0  0  0
  2  4  1  0  0  0  0
  4  5  1  0  0  0  0
  5  6  1  0  0  0  0
  6  7  2  0  0  0  0
  7  8  1  0  0  0  0
  8  9  2  0  0  0  0
  9 10  1  0  0  0  0
  5 10  2  0  0  0  0
  4 11  1  0  0  0  0
 11 12  1  0  0  0  0
 12 13  2  0  0  0  0
 13 14  1  0  0  0  0
 14 15  2  0  0  0  0
 15 16  1  0  0  0  0
 11 16  2  0  0  0  0
M  END
>  <Catalog ID>
Z104477292

>  <Plate_ID>
2026997-X50-04

>  <Well>
D09

>  <V, µL>
50

>  <Conc, mM>
10

>  <Formula>
C14H12O2

>  <MW>
212.2439

>  <Purity>
100

>  <PO>
5A-64168

>  <MW_salt>
0

>  <Stereochem.data>
Achiral

>  <Geometric.isomer>
None

>  <Chemical name>
2,2-diphenylacetic acid

>  <ClogP>
2,762

>  <logS>
-2,72

>  <HBD>
1

>  <HBA>
2

>  <TPSA>
37,3

>  <RotBonds>
3

$$$$

  Mrv1925 04172511382D          

 13 13  0  0  0  0            999 V2000
   -0.7145    3.7125    0.0000 O   0  0  0  0  0  0  0  0  0  0  0  0
    0.0000    3.3000    0.0000 C   0  0  0  0  0  0  0  0  0  0  0  0
    0.7145    3.7125    0.0000 O   0  0  0  0  0  0  0  0  0  0  0  0
    0.0000    2.4750    0.0000 C   0  0  0  0  0  0  0  0  0  0  0  0
    0.7145    2.0625    0.0000 O   0  0  0  0  0  0  0  0  0  0  0  0
    0.7145    1.2375    0.0000 C   0  0  0  0  0  0  0  0  0  0  0  0
    1.4289    0.8250    0.0000 C   0  0  0  0  0  0  0  0  0  0  0  0
    2.1434    1.2375    0.0000 Cl  0  0  0  0  0  0  0  0  0  0  0  0
    1.4289   -0.0000    0.0000 C   0  0  0  0  0  0  0  0  0  0  0  0
    0.7145   -0.4125    0.0000 C   0  0  0  0  0  0  0  0  0  0  0  0
    0.0000    0.0000    0.0000 C   0  0  0  0  0  0  0  0  0  0  0  0
    0.0000    0.8250    0.0000 C   0  0  0  0  0  0  0  0  0  0  0  0
   -0.7145    1.2375    0.0000 Cl  0  0  0  0  0  0  0  0  0  0  0  0
  1  2  2  0  0  0  0
  2  3  1  0  0  0  0
  2  4  1  0  0  0  0
  4  5  1  0  0  0  0
  5  6  1  0  0  0  0
  6  7  1  0  0  0  0
  7  8  1  0  0  0  0
  7  9  2  0  0  0  0
  9 10  1  0  0  0  0
 10 11  2  0  0  0  0
 11 12  1  0  0  0  0
  6 12  2  0  0  0  0
 12 13  1  0  0  0  0
M  END
>  <Catalog ID>
Z56928539

>  <Plate_ID>
2026997-X50-04

>  <Well>
E09

>  <V, µL>
50

>  <Conc, mM>
10

>  <Formula>
C8H6Cl2O3

>  <MW>
221.0374

>  <Purity>
100

>  <PO>
5A-64168

>  <MW_salt>
0

>  <Stereochem.data>
Achiral

>  <Geometric.isomer>
None

>  <Chemical name>
2-(2,6-dichlorophenoxy)acetic acid

>  <ClogP>
2,505

>  <logS>
-2,99

>  <HBD>
1

>  <HBA>
3

>  <TPSA>
46,53

>  <RotBonds>
3

$$$$

  Mrv1925 04172511382D          

 15 16  0  0  0  0            999 V2000
   -1.8212   -2.1269    0.0000 O   0  0  0  0  0  0  0  0  0  0  0  0
   -1.4087   -1.4124    0.0000 C   0  0  0  0  0  0  0  0  0  0  0  0
   -1.8212   -0.6979    0.0000 O   0  0  0  0  0  0  0  0  0  0  0  0
   -0.5837   -1.4124    0.0000 C   0  0  0  0  0  0  0  0  0  0  0  0
   -0.1712   -0.6979    0.0000 C   0  0  0  0  0  0  0  0  0  0  0  0
    0.6538   -0.6979    0.0000 C   0  0  0  0  0  0  0  0  0  0  0  0
    1.1387   -0.0305    0.0000 N   0  0  0  0  0  0  0  0  0  0  0  0
    1.9233   -0.2854    0.0000 C   0  0  0  0  0  0  0  0  0  0  0  0
    2.6378    0.1271    0.0000 C   0  0  0  0  0  0  0  0  0  0  0  0
    3.3523   -0.2854    0.0000 C   0  0  0  0  0  0  0  0  0  0  0  0
    4.0668    0.1271    0.0000 Cl  0  0  0  0  0  0  0  0  0  0  0  0
    3.3523   -1.1104    0.0000 C   0  0  0  0  0  0  0  0  0  0  0  0
    2.6378   -1.5229    0.0000 C   0  0  0  0  0  0  0  0  0  0  0  0
    1.9233   -1.1104    0.0000 C   0  0  0  0  0  0  0  0  0  0  0  0
    1.1387   -1.3654    0.0000 S   0  0  0  0  0  0  0  0  0  0  0  0
  1  2  2  0  0  0  0
  2  3  1  0  0  0  0
  2  4  1  0  0  0  0
  4  5  1  0  0  0  0
  5  6  1  0  0  0  0
  6  7  2  0  0  0  0
  7  8  1  0  0  0  0
  8  9  2  0  0  0  0
  9 10  1  0  0  0  0
 10 11  1  0  0  0  0
 10 12  2  0  0  0  0
 12 13  1  0  0  0  0
 13 14  2  0  0  0  0
  8 14  1  0  0  0  0
 14 15  1  0  0  0  0
  6 15  1  0  0  0  0
M  END
>  <Catalog ID>
Z228584328

>  <Plate_ID>
2026997-X50-04

>  <Well>
F09

>  <V, µL>
50

>  <Conc, mM>
10

>  <Formula>
C10H8ClNO2S

>  <MW>
241.694

>  <Purity>
100

>  <PO>
5A-64168

>  <MW_salt>
0

>  <Stereochem.data>
Achiral

>  <Geometric.isomer>
None

>  <Chemical name>
3-(5-chloro-1,3-benzothiazol-2-yl)propanoic acid

>  <ClogP>
2,581

>  <logS>
-2,41

>  <HBD>
1

>  <HBA>
3

>  <TPSA>
50,19

>  <RotBonds>
3

$$$$

  Mrv1925 04172511382D          

 12 13  0  0  0  0            999 V2000
    1.4289   -2.4750    0.0000 O   0  0  0  0  0  0  0  0  0  0  0  0
    1.4289   -1.6500    0.0000 C   0  0  0  0  0  0  0  0  0  0  0  0
    0.7145   -1.2375    0.0000 C   0  0  0  0  0  0  0  0  0  0  0  0
    0.7145   -0.4125    0.0000 C   0  0  0  0  0  0  0  0  0  0  0  0
    1.4289    0.0000    0.0000 C   0  0  0  0  0  0  0  0  0  0  0  0
    2.1434   -0.4125    0.0000 C   0  0  0  0  0  0  0  0  0  0  0  0
    2.8579    0.0000    0.0000 C   0  0  0  0  0  0  0  0  0  0  0  0
    3.5724   -0.4125    0.0000 C   0  0  0  0  0  0  0  0  0  0  0  0
    4.2868   -0.0000    0.0000 O   0  0  0  0  0  0  0  0  0  0  0  0
    3.5724   -1.2375    0.0000 C   0  0  0  0  0  0  0  0  0  0  0  0
    2.8579   -1.6500    0.0000 C   0  0  0  0  0  0  0  0  0  0  0  0
    2.1434   -1.2375    0.0000 C   0  0  0  0  0  0  0  0  0  0  0  0
  1  2  2  0  0  0  0
  2  3  1  0  0  0  0
  3  4  1  0  0  0  0
  4  5  1  0  0  0  0
  5  6  1  0  0  0  0
  6  7  2  0  0  0  0
  7  8  1  0  0  0  0
  8  9  1  0  0  0  0
  8 10  2  0  0  0  0
 10 11  1  0  0  0  0
 11 12  2  0  0  0  0
  2 12  1  0  0  0  0
  6 12  1  0  0  0  0
M  END
>  <Catalog ID>
Z877546758

>  <Plate_ID>
2026997-X50-04

>  <Well>
G09

>  <V, µL>
50

>  <Conc, mM>
10

>  <Formula>
C10H10O2

>  <MW>
162.1852

>  <Purity>
100

>  <PO>
5A-64168

>  <MW_salt>
0

>  <Stereochem.data>
Achiral

>  <Geometric.isomer>
None

>  <Chemical name>
6-hydroxy-1,2,3,4-tetrahydronaphthalen-1-one

>  <ClogP>
1,999

>  <logS>
-2,08

>  <HBD>
1

>  <HBA>
2

>  <TPSA>
37,3

>  <RotBonds>
0

$$$$

  Mrv1925 04172511382D          

 15 16  0  0  0  0            999 V2000
   -1.4087   -1.4124    0.0000 O   0  0  0  0  0  0  0  0  0  0  0  0
   -0.5837   -1.4124    0.0000 C   0  0  0  0  0  0  0  0  0  0  0  0
   -0.1712   -2.1269    0.0000 O   0  0  0  0  0  0  0  0  0  0  0  0
   -0.1712   -0.6979    0.0000 C   0  0  0  0  0  0  0  0  0  0  0  0
    0.6538   -0.6979    0.0000 N   0  0  0  0  0  0  0  0  0  0  0  0
    1.1387   -0.0305    0.0000 C   0  0  0  0  0  0  0  0  0  0  0  0
    0.8838    0.7541    0.0000 O   0  0  0  0  0  0  0  0  0  0  0  0
    1.9233   -0.2854    0.0000 C   0  0  0  0  0  0  0  0  0  0  0  0
    2.6378    0.1271    0.0000 C   0  0  0  0  0  0  0  0  0  0  0  0
    3.3523   -0.2854    0.0000 C   0  0  0  0  0  0  0  0  0  0  0  0
    3.3523   -1.1104    0.0000 C   0  0  0  0  0  0  0  0  0  0  0  0
    2.6378   -1.5229    0.0000 C   0  0  0  0  0  0  0  0  0  0  0  0
    1.9233   -1.1104    0.0000 C   0  0  0  0  0  0  0  0  0  0  0  0
    1.1387   -1.3654    0.0000 C   0  0  0  0  0  0  0  0  0  0  0  0
    0.8838   -2.1500    0.0000 O   0  0  0  0  0  0  0  0  0  0  0  0
  1  2  2  0  0  0  0
  2  3  1  0  0  0  0
  2  4  1  0  0  0  0
  4  5  1  0  0  0  0
  5  6  1  0  0  0  0
  6  7  2  0  0  0  0
  6  8  1  0  0  0  0
  8  9  1  0  0  0  0
  9 10  2  0  0  0  0
 10 11  1  0  0  0  0
 11 12  2  0  0  0  0
 12 13  1  0  0  0  0
  8 13  2  0  0  0  0
 13 14  1  0  0  0  0
  5 14  1  0  0  0  0
 14 15  2  0  0  0  0
M  END
>  <Catalog ID>
Z56175684

>  <Plate_ID>
2026997-X50-04

>  <Well>
H09

>  <V, µL>
50

>  <Conc, mM>
10

>  <Formula>
C10H7NO4

>  <MW>
205.1669

>  <Purity>
100

>  <PO>
5A-64168

>  <MW_salt>
0

>  <Stereochem.data>
Achiral

>  <Geometric.isomer>
None

>  <Chemical name>
2-(1,3-dioxo-2,3-dihydro-1H-isoindol-2-yl)acetic acid

>  <ClogP>
0,881

>  <logS>
-2,42

>  <HBD>
1

>  <HBA>
4

>  <TPSA>
74,68

>  <RotBonds>
2

$$$$

  Mrv1925 04172511382D          

 13 14  0  0  0  0            999 V2000
   -0.1749   -0.6157    0.0000 N   0  0  0  0  0  0  0  0  0  0  0  0
    0.6320   -0.4441    0.0000 C   0  0  0  0  0  0  0  0  0  0  0  0
    1.1841   -1.0572    0.0000 C   0  0  0  0  0  0  0  0  0  0  0  0
    1.8515   -1.5422    0.0000 C   0  0  0  0  0  0  0  0  0  0  0  0
    1.5966   -2.3268    0.0000 C   0  0  0  0  0  0  0  0  0  0  0  0
    0.7716   -2.3268    0.0000 C   0  0  0  0  0  0  0  0  0  0  0  0
    0.5166   -1.5422    0.0000 C   0  0  0  0  0  0  0  0  0  0  0  0
    1.7361   -0.4441    0.0000 C   0  0  0  0  0  0  0  0  0  0  0  0
    1.4812    0.3405    0.0000 C   0  0  0  0  0  0  0  0  0  0  0  0
    2.0332    0.9536    0.0000 C   0  0  0  0  0  0  0  0  0  0  0  0
    2.8402    0.7820    0.0000 C   0  0  0  0  0  0  0  0  0  0  0  0
    3.0951   -0.0026    0.0000 C   0  0  0  0  0  0  0  0  0  0  0  0
    2.5431   -0.6157    0.0000 C   0  0  0  0  0  0  0  0  0  0  0  0
  1  2  1  0  0  0  0
  2  3  1  0  0  0  0
  3  4  1  0  0  0  0
  4  5  1  0  0  0  0
  5  6  1  0  0  0  0
  6  7  1  0  0  0  0
  3  7  1  0  0  0  0
  3  8  1  0  0  0  0
  8  9  1  0  0  0  0
  9 10  2  0  0  0  0
 10 11  1  0  0  0  0
 11 12  2  0  0  0  0
 12 13  1  0  0  0  0
  8 13  2  0  0  0  0
M  END
>  <Catalog ID>
Z199451530

>  <Plate_ID>
2026997-X50-04

>  <Well>
A10

>  <V, µL>
50

>  <Conc, mM>
10

>  <Formula>
C12H17N

>  <MW>
175.2701

>  <Purity>
100

>  <PO>
5A-64168

>  <MW_salt>
0

>  <Stereochem.data>
Achiral

>  <Geometric.isomer>
None

>  <Chemical name>
1-(1-phenylcyclopentyl)methanamine

>  <ClogP>
2,985

>  <logS>
-2,33

>  <HBD>
1

>  <HBA>
1

>  <TPSA>
26,02

>  <RotBonds>
2

$$$$

  Mrv1925 04172511382D          

 10 10  0  0  0  0            999 V2000
    0.0000    2.4750    0.0000 N   0  0  0  0  0  0  0  0  0  0  0  0
    0.7145    2.0625    0.0000 C   0  0  0  0  0  0  0  0  0  0  0  0
    1.4289    2.4750    0.0000 O   0  0  0  0  0  0  0  0  0  0  0  0
    0.7145    1.2375    0.0000 C   0  0  0  0  0  0  0  0  0  0  0  0
    1.4289    0.8250    0.0000 C   0  0  0  0  0  0  0  0  0  0  0  0
    1.4289   -0.0000    0.0000 C   0  0  0  0  0  0  0  0  0  0  0  0
    0.7145   -0.4125    0.0000 C   0  0  0  0  0  0  0  0  0  0  0  0
    0.0000    0.0000    0.0000 C   0  0  0  0  0  0  0  0  0  0  0  0
   -0.7145   -0.4125    0.0000 N   0  0  0  0  0  0  0  0  0  0  0  0
    0.0000    0.8250    0.0000 C   0  0  0  0  0  0  0  0  0  0  0  0
  1  2  1  0  0  0  0
  2  3  2  0  0  0  0
  2  4  1  0  0  0  0
  4  5  2  0  0  0  0
  5  6  1  0  0  0  0
  6  7  2  0  0  0  0
  7  8  1  0  0  0  0
  8  9  1  0  0  0  0
  8 10  2  0  0  0  0
  4 10  1  0  0  0  0
M  END
>  <Catalog ID>
Z118530082

>  <Plate_ID>
2026997-X50-04

>  <Well>
B10

>  <V, µL>
50

>  <Conc, mM>
10

>  <Formula>
C7H8N2O

>  <MW>
136.1512

>  <Purity>
100

>  <PO>
5A-64168

>  <MW_salt>
0

>  <Stereochem.data>
Achiral

>  <Geometric.isomer>
None

>  <Chemical name>
3-aminobenzamide

>  <ClogP>
-0,252

>  <logS>
-1,39

>  <HBD>
2

>  <HBA>
2

>  <TPSA>
69,11

>  <RotBonds>
1

$$$$

  Mrv1925 04172511382D          

 11 11  0  0  0  0            999 V2000
    0.0000    3.3000    0.0000 O   0  0  0  0  0  0  0  0  0  0  0  0
    0.0000    2.4750    0.0000 C   0  0  0  0  0  0  0  0  0  0  0  0
   -0.7145    2.0625    0.0000 O   0  0  0  0  0  0  0  0  0  0  0  0
    0.7145    2.0625    0.0000 C   0  0  0  0  0  0  0  0  0  0  0  0
    0.7145    1.2375    0.0000 C   0  0  0  0  0  0  0  0  0  0  0  0
    1.4289    0.8250    0.0000 C   0  0  0  0  0  0  0  0  0  0  0  0
    1.4289   -0.0000    0.0000 C   0  0  0  0  0  0  0  0  0  0  0  0
    0.7145   -0.4125    0.0000 C   0  0  0  0  0  0  0  0  0  0  0  0
    0.0000    0.0000    0.0000 C   0  0  0  0  0  0  0  0  0  0  0  0
   -0.7145   -0.4125    0.0000 O   0  0  0  0  0  0  0  0  0  0  0  0
    0.0000    0.8250    0.0000 C   0  0  0  0  0  0  0  0  0  0  0  0
  1  2  2  0  0  0  0
  2  3  1  0  0  0  0
  2  4  1  0  0  0  0
  4  5  1  0  0  0  0
  5  6  1  0  0  0  0
  6  7  2  0  0  0  0
  7  8  1  0  0  0  0
  8  9  2  0  0  0  0
  9 10  1  0  0  0  0
  9 11  1  0  0  0  0
  5 11  2  0  0  0  0
M  END
>  <Catalog ID>
Z816000338

>  <Plate_ID>
2026997-X50-04

>  <Well>
C10

>  <V, µL>
50

>  <Conc, mM>
10

>  <Formula>
C8H8O3

>  <MW>
152.1473

>  <Purity>
98.66

>  <PO>
5A-64168

>  <MW_salt>
0

>  <Stereochem.data>
Achiral

>  <Geometric.isomer>
None

>  <Chemical name>
2-(3-hydroxyphenyl)acetic acid

>  <ClogP>
0,747

>  <logS>
-0,66

>  <HBD>
2

>  <HBA>
3

>  <TPSA>
57,53

>  <RotBonds>
2

$$$$

  Mrv1925 04172511382D          

 13 14  0  0  0  0            999 V2000
    4.0668    2.3479    0.0000 C   0  0  0  0  0  0  0  0  0  0  0  0
    3.3523    1.9354    0.0000 C   0  0  0  0  0  0  0  0  0  0  0  0
    3.3523    1.1104    0.0000 C   0  0  0  0  0  0  0  0  0  0  0  0
    2.6378    0.6979    0.0000 C   0  0  0  0  0  0  0  0  0  0  0  0
    2.6378   -0.1271    0.0000 Br  0  0  0  0  0  0  0  0  0  0  0  0
    1.9233    1.1104    0.0000 C   0  0  0  0  0  0  0  0  0  0  0  0
    1.1387    0.8555    0.0000 N   0  0  0  0  0  0  0  0  0  0  0  0
    0.6538    1.5229    0.0000 C   0  0  0  0  0  0  0  0  0  0  0  0
   -0.1712    1.5229    0.0000 O   0  0  0  0  0  0  0  0  0  0  0  0
    1.1387    2.1904    0.0000 C   0  0  0  0  0  0  0  0  0  0  0  0
    0.8838    2.9750    0.0000 O   0  0  0  0  0  0  0  0  0  0  0  0
    1.9233    1.9354    0.0000 C   0  0  0  0  0  0  0  0  0  0  0  0
    2.6378    2.3479    0.0000 C   0  0  0  0  0  0  0  0  0  0  0  0
  1  2  1  0  0  0  0
  2  3  1  0  0  0  0
  3  4  2  0  0  0  0
  4  5  1  0  0  0  0
  4  6  1  0  0  0  0
  6  7  1  0  0  0  0
  7  8  1  0  0  0  0
  8  9  2  0  0  0  0
  8 10  1  0  0  0  0
 10 11  2  0  0  0  0
 10 12  1  0  0  0  0
  6 12  2  0  0  0  0
 12 13  1  0  0  0  0
  2 13  2  0  0  0  0
M  END
>  <Catalog ID>
Z111834284

>  <Plate_ID>
2026997-X50-04

>  <Well>
D10

>  <V, µL>
50

>  <Conc, mM>
10

>  <Formula>
C9H6BrNO2

>  <MW>
240.0534

>  <Purity>
100

>  <PO>
5A-64168

>  <MW_salt>
0

>  <Stereochem.data>
Achiral

>  <Geometric.isomer>
None

>  <Chemical name>
7-bromo-5-methyl-2,3-dihydro-1H-indole-2,3-dione

>  <ClogP>
2,19

>  <logS>
-3,69

>  <HBD>
1

>  <HBA>
2

>  <TPSA>
46,17

>  <RotBonds>
0

$$$$

  Mrv1925 04172511382D          

 13 14  0  0  0  0            999 V2000
    0.7145   -0.4125    0.0000 C   0  0  0  0  0  0  0  0  0  0  0  0
    0.7145   -1.2375    0.0000 C   0  0  0  0  0  0  0  0  0  0  0  0
    1.3819   -1.7224    0.0000 N   0  0  0  0  0  0  0  0  0  0  0  0
    1.1270   -2.5070    0.0000 O   0  0  0  0  0  0  0  0  0  0  0  0
    0.3020   -2.5070    0.0000 C   0  0  0  0  0  0  0  0  0  0  0  0
   -0.1830   -3.1745    0.0000 C   0  0  0  0  0  0  0  0  0  0  0  0
    0.0470   -1.7224    0.0000 C   0  0  0  0  0  0  0  0  0  0  0  0
   -0.7376   -1.4675    0.0000 C   0  0  0  0  0  0  0  0  0  0  0  0
   -1.3507   -2.0195    0.0000 C   0  0  0  0  0  0  0  0  0  0  0  0
   -2.1353   -1.7646    0.0000 C   0  0  0  0  0  0  0  0  0  0  0  0
   -2.3068   -0.9576    0.0000 C   0  0  0  0  0  0  0  0  0  0  0  0
   -1.6937   -0.4056    0.0000 C   0  0  0  0  0  0  0  0  0  0  0  0
   -0.9091   -0.6605    0.0000 C   0  0  0  0  0  0  0  0  0  0  0  0
  1  2  1  0  0  0  0
  2  3  2  0  0  0  0
  3  4  1  0  0  0  0
  4  5  1  0  0  0  0
  5  6  1  0  0  0  0
  5  7  2  0  0  0  0
  2  7  1  0  0  0  0
  7  8  1  0  0  0  0
  8  9  1  0  0  0  0
  9 10  2  0  0  0  0
 10 11  1  0  0  0  0
 11 12  2  0  0  0  0
 12 13  1  0  0  0  0
  8 13  2  0  0  0  0
M  END
>  <Catalog ID>
Z1255374820

>  <Plate_ID>
2026997-X50-04

>  <Well>
E10

>  <V, µL>
50

>  <Conc, mM>
10

>  <Formula>
C11H11NO

>  <MW>
173.2111

>  <Purity>
100

>  <PO>
5A-64168

>  <MW_salt>
0

>  <Stereochem.data>
Achiral

>  <Geometric.isomer>
None

>  <Chemical name>
3,5-dimethyl-4-phenyl-1,2-oxazole

>  <ClogP>
1,947

>  <logS>
-2,51

>  <HBD>
0

>  <HBA>
1

>  <TPSA>
26,03

>  <RotBonds>
1

$$$$

  Mrv1925 04172511382D          

 10 10  0  0  0  0            999 V2000
    0.0000    2.4750    0.0000 O   0  0  0  0  0  0  0  0  0  0  0  0
    0.7145    2.0625    0.0000 C   0  0  0  0  0  0  0  0  0  0  0  0
    1.4289    2.4750    0.0000 O   0  0  0  0  0  0  0  0  0  0  0  0
    0.7145    1.2375    0.0000 C   0  0  0  0  0  0  0  0  0  0  0  0
    1.4289    0.8250    0.0000 N   0  0  0  0  0  0  0  0  0  0  0  0
    1.4289   -0.0000    0.0000 C   0  0  0  0  0  0  0  0  0  0  0  0
    0.7145   -0.4125    0.0000 C   0  0  0  0  0  0  0  0  0  0  0  0
    0.0000    0.0000    0.0000 C   0  0  0  0  0  0  0  0  0  0  0  0
    0.0000    0.8250    0.0000 C   0  0  0  0  0  0  0  0  0  0  0  0
   -0.7145    1.2375    0.0000 O   0  0  0  0  0  0  0  0  0  0  0  0
  1  2  2  0  0  0  0
  2  3  1  0  0  0  0
  2  4  1  0  0  0  0
  4  5  1  0  0  0  0
  5  6  2  0  0  0  0
  6  7  1  0  0  0  0
  7  8  2  0  0  0  0
  8  9  1  0  0  0  0
  4  9  2  0  0  0  0
  9 10  1  0  0  0  0
M  END
>  <Catalog ID>
Z608353738

>  <Plate_ID>
2026997-X50-04

>  <Well>
F10

>  <V, µL>
50

>  <Conc, mM>
10

>  <Formula>
C6H5NO3

>  <MW>
139.1088

>  <Purity>
96.42

>  <PO>
5A-64168

>  <MW_salt>
0

>  <Stereochem.data>
Achiral

>  <Geometric.isomer>
None

>  <Chemical name>
3-hydroxypyridine-2-carboxylic acid

>  <ClogP>
1,768

>  <logS>
-0,23

>  <HBD>
2

>  <HBA>
4

>  <TPSA>
70,42

>  <RotBonds>
1

$$$$

  Mrv1925 04172511382D          

 12 12  0  0  0  0            999 V2000
   -0.7145    3.7125    0.0000 O   0  0  0  0  0  0  0  0  0  0  0  0
    0.0000    3.3000    0.0000 C   0  0  0  0  0  0  0  0  0  0  0  0
    0.7145    3.7125    0.0000 O   0  0  0  0  0  0  0  0  0  0  0  0
    0.0000    2.4750    0.0000 C   0  0  0  0  0  0  0  0  0  0  0  0
   -0.7145    2.0625    0.0000 O   0  0  0  0  0  0  0  0  0  0  0  0
    0.7145    2.0625    0.0000 N   0  0  0  0  0  0  0  0  0  0  0  0
    0.7145    1.2375    0.0000 C   0  0  0  0  0  0  0  0  0  0  0  0
    1.4289    0.8250    0.0000 C   0  0  0  0  0  0  0  0  0  0  0  0
    1.4289   -0.0000    0.0000 C   0  0  0  0  0  0  0  0  0  0  0  0
    0.7145   -0.4125    0.0000 C   0  0  0  0  0  0  0  0  0  0  0  0
    0.0000    0.0000    0.0000 C   0  0  0  0  0  0  0  0  0  0  0  0
    0.0000    0.8250    0.0000 C   0  0  0  0  0  0  0  0  0  0  0  0
  1  2  2  0  0  0  0
  2  3  1  0  0  0  0
  2  4  1  0  0  0  0
  4  5  2  0  0  0  0
  4  6  1  0  0  0  0
  6  7  1  0  0  0  0
  7  8  1  0  0  0  0
  8  9  2  0  0  0  0
  9 10  1  0  0  0  0
 10 11  2  0  0  0  0
 11 12  1  0  0  0  0
  7 12  2  0  0  0  0
M  END
>  <Catalog ID>
Z362848468

>  <Plate_ID>
2026997-X50-04

>  <Well>
G10

>  <V, µL>
50

>  <Conc, mM>
10

>  <Formula>
C8H7NO3

>  <MW>
165.1461

>  <Purity>
95

>  <PO>
5A-64168

>  <MW_salt>
0

>  <Stereochem.data>
Achiral

>  <Geometric.isomer>
None

>  <Chemical name>
(phenylcarbamoyl)formic acid

>  <ClogP>
-0,085

>  <logS>
-1,75

>  <HBD>
2

>  <HBA>
3

>  <TPSA>
66,4

>  <RotBonds>
2

$$$$

  Mrv1925 04172511382D          

 12 12  0  0  0  0            999 V2000
    0.7145    2.0625    0.0000 C   0  0  0  0  0  0  0  0  0  0  0  0
    0.7145    1.2375    0.0000 C   0  0  0  0  0  0  0  0  0  0  0  0
    1.4289    0.8250    0.0000 C   0  0  0  0  0  0  0  0  0  0  0  0
    1.4289   -0.0000    0.0000 C   0  0  0  0  0  0  0  0  0  0  0  0
    0.7145   -0.4125    0.0000 C   0  0  0  0  0  0  0  0  0  0  0  0
    0.0000    0.0000    0.0000 C   0  0  0  0  0  0  0  0  0  0  0  0
    0.0000    0.8250    0.0000 C   0  0  0  0  0  0  0  0  0  0  0  0
    0.7145   -1.2375    0.0000 C   0  0  0  0  0  0  0  0  0  0  0  0
    1.4289   -1.6500    0.0000 C   0  0  0  0  0  0  0  0  0  0  0  0
    1.4289   -2.4750    0.0000 C   0  0  0  0  0  0  0  0  0  0  0  0
    2.1434   -2.8875    0.0000 O   0  0  0  0  0  0  0  0  0  0  0  0
    0.7145   -2.8875    0.0000 O   0  0  0  0  0  0  0  0  0  0  0  0
  1  2  1  0  0  0  0
  2  3  1  0  0  0  0
  3  4  2  0  0  0  0
  4  5  1  0  0  0  0
  5  6  2  0  0  0  0
  6  7  1  0  0  0  0
  2  7  2  0  0  0  0
  5  8  1  0  0  0  0
  8  9  1  0  0  0  0
  9 10  1  0  0  0  0
 10 11  2  0  0  0  0
 10 12  1  0  0  0  0
M  END
>  <Catalog ID>
Z169855336

>  <Plate_ID>
2026997-X50-04

>  <Well>
H10

>  <V, µL>
50

>  <Conc, mM>
10

>  <Formula>
C10H12O2

>  <MW>
164.2011

>  <Purity>
100

>  <PO>
5A-64168

>  <MW_salt>
0

>  <Stereochem.data>
Achiral

>  <Geometric.isomer>
None

>  <Chemical name>
3-(4-methylphenyl)propanoic acid

>  <ClogP>
2,402

>  <logS>
-1,86

>  <HBD>
1

>  <HBA>
2

>  <TPSA>
37,3

>  <RotBonds>
3

$$$$

  Mrv1925 04172511382D          

  8  8  0  0  0  0            999 V2000
   -0.1467    3.1768    0.0000 O   0  0  0  0  0  0  0  0  0  0  0  0
   -0.1467    2.3518    0.0000 C   0  0  0  0  0  0  0  0  0  0  0  0
    0.5678    1.9393    0.0000 C   0  0  0  0  0  0  0  0  0  0  0  0
    0.5678    1.1143    0.0000 N   0  0  0  0  0  0  0  0  0  0  0  0
    1.2352    0.6294    0.0000 C   0  0  0  0  0  0  0  0  0  0  0  0
    0.9803   -0.1553    0.0000 C   0  0  0  0  0  0  0  0  0  0  0  0
    0.1553   -0.1553    0.0000 C   0  0  0  0  0  0  0  0  0  0  0  0
   -0.0997    0.6294    0.0000 N   0  0  0  0  0  0  0  0  0  0  0  0
  1  2  1  0  0  0  0
  2  3  1  0  0  0  0
  3  4  1  0  0  0  0
  4  5  1  0  0  0  0
  5  6  2  0  0  0  0
  6  7  1  0  0  0  0
  7  8  2  0  0  0  0
  4  8  1  0  0  0  0
M  END
>  <Catalog ID>
Z425794824

>  <Plate_ID>
2026997-X50-04

>  <Well>
A11

>  <V, µL>
50

>  <Conc, mM>
10

>  <Formula>
C5H8N2O

>  <MW>
112.1298

>  <Purity>
100

>  <PO>
5A-64168

>  <MW_salt>
0

>  <Stereochem.data>
Achiral

>  <Geometric.isomer>
None

>  <Chemical name>
2-(1H-pyrazol-1-yl)ethan-1-ol

>  <ClogP>
-0,435

>  <logS>
0,66

>  <HBD>
1

>  <HBA>
2

>  <TPSA>
38,05

>  <RotBonds>
2

$$$$

  Mrv1925 04172511382D          

 11 11  0  0  0  0            999 V2000
    0.7145    2.0625    0.0000 C   0  0  0  0  0  0  0  0  0  0  0  0
    0.7145    1.2375    0.0000 C   0  0  0  0  0  0  0  0  0  0  0  0
    1.4289    0.8250    0.0000 C   0  0  0  0  0  0  0  0  0  0  0  0
    1.4289   -0.0000    0.0000 C   0  0  0  0  0  0  0  0  0  0  0  0
    0.7145   -0.4125    0.0000 C   0  0  0  0  0  0  0  0  0  0  0  0
    0.7145   -1.2375    0.0000 O   0  0  0  0  0  0  0  0  0  0  0  0
    0.0000    0.0000    0.0000 C   0  0  0  0  0  0  0  0  0  0  0  0
    0.0000    0.8250    0.0000 C   0  0  0  0  0  0  0  0  0  0  0  0
   -0.7145   -0.4125    0.0000 C   0  0  0  0  0  0  0  0  0  0  0  0
   -1.4289    0.0000    0.0000 O   0  0  0  0  0  0  0  0  0  0  0  0
   -0.7145   -1.2375    0.0000 O   0  0  0  0  0  0  0  0  0  0  0  0
  1  2  1  0  0  0  0
  2  3  1  0  0  0  0
  3  4  2  0  0  0  0
  4  5  1  0  0  0  0
  5  6  1  0  0  0  0
  5  7  2  0  0  0  0
  7  8  1  0  0  0  0
  2  8  2  0  0  0  0
  7  9  1  0  0  0  0
  9 10  2  0  0  0  0
  9 11  1  0  0  0  0
M  END
>  <Catalog ID>
Z147642456

>  <Plate_ID>
2026997-X50-04

>  <Well>
B11

>  <V, µL>
50

>  <Conc, mM>
10

>  <Formula>
C8H8O3

>  <MW>
152.1473

>  <Purity>
95

>  <PO>
5A-64168

>  <MW_salt>
0

>  <Stereochem.data>
Achiral

>  <Geometric.isomer>
None

>  <Chemical name>
2-hydroxy-5-methylbenzoic acid

>  <ClogP>
2,686

>  <logS>
-1,63

>  <HBD>
2

>  <HBA>
3

>  <TPSA>
57,53

>  <RotBonds>
1

$$$$

  Mrv1925 04172511382D          

 12 13  0  0  0  0            999 V2000
   -0.1712   -0.6979    0.0000 O   0  0  0  0  0  0  0  0  0  0  0  0
    0.6538   -0.6979    0.0000 C   0  0  0  0  0  0  0  0  0  0  0  0
    1.1387   -0.0305    0.0000 N   0  0  0  0  0  0  0  0  0  0  0  0
    1.9233   -0.2854    0.0000 C   0  0  0  0  0  0  0  0  0  0  0  0
    2.6378    0.1271    0.0000 C   0  0  0  0  0  0  0  0  0  0  0  0
    3.3523   -0.2854    0.0000 C   0  0  0  0  0  0  0  0  0  0  0  0
    3.3523   -1.1104    0.0000 C   0  0  0  0  0  0  0  0  0  0  0  0
    4.0668   -1.5229    0.0000 Cl  0  0  0  0  0  0  0  0  0  0  0  0
    2.6378   -1.5229    0.0000 C   0  0  0  0  0  0  0  0  0  0  0  0
    1.9233   -1.1104    0.0000 C   0  0  0  0  0  0  0  0  0  0  0  0
    1.1387   -1.3654    0.0000 C   0  0  0  0  0  0  0  0  0  0  0  0
    0.8838   -2.1500    0.0000 O   0  0  0  0  0  0  0  0  0  0  0  0
  1  2  2  0  0  0  0
  2  3  1  0  0  0  0
  3  4  1  0  0  0  0
  4  5  1  0  0  0  0
  5  6  2  0  0  0  0
  6  7  1  0  0  0  0
  7  8  1  0  0  0  0
  7  9  2  0  0  0  0
  9 10  1  0  0  0  0
  4 10  2  0  0  0  0
 10 11  1  0  0  0  0
  2 11  1  0  0  0  0
 11 12  2  0  0  0  0
M  END
>  <Catalog ID>
Z56899110

>  <Plate_ID>
2026997-X50-04

>  <Well>
C11

>  <V, µL>
50

>  <Conc, mM>
10

>  <Formula>
C8H4ClNO2

>  <MW>
181.5759

>  <Purity>
100

>  <PO>
5A-64168

>  <MW_salt>
0

>  <Stereochem.data>
Achiral

>  <Geometric.isomer>
None

>  <Chemical name>
5-chloro-2,3-dihydro-1H-indole-2,3-dione

>  <ClogP>
1,541

>  <logS>
-2,82

>  <HBD>
1

>  <HBA>
2

>  <TPSA>
46,17

>  <RotBonds>
0

$$$$

  Mrv1925 04172511382D          

  9  9  0  0  0  0            999 V2000
    0.0000    2.4750    0.0000 C   0  0  0  0  0  0  0  0  0  0  0  0
    0.7145    2.0625    0.0000 C   0  0  0  0  0  0  0  0  0  0  0  0
    0.7145    1.2375    0.0000 C   0  0  0  0  0  0  0  0  0  0  0  0
    1.4289    0.8250    0.0000 C   0  0  0  0  0  0  0  0  0  0  0  0
    1.4289   -0.0000    0.0000 C   0  0  0  0  0  0  0  0  0  0  0  0
    0.7145   -0.4125    0.0000 C   0  0  0  0  0  0  0  0  0  0  0  0
    0.7145   -1.2375    0.0000 O   0  0  0  0  0  0  0  0  0  0  0  0
    0.0000    0.0000    0.0000 C   0  0  0  0  0  0  0  0  0  0  0  0
    0.0000    0.8250    0.0000 C   0  0  0  0  0  0  0  0  0  0  0  0
  1  2  1  0  0  0  0
  2  3  1  0  0  0  0
  3  4  1  0  0  0  0
  4  5  2  0  0  0  0
  5  6  1  0  0  0  0
  6  7  1  0  0  0  0
  6  8  2  0  0  0  0
  8  9  1  0  0  0  0
  3  9  2  0  0  0  0
M  END
>  <Catalog ID>
Z104479728

>  <Plate_ID>
2026997-X50-04

>  <Well>
D11

>  <V, µL>
50

>  <Conc, mM>
10

>  <Formula>
C8H10O

>  <MW>
122.1644

>  <Purity>
95

>  <PO>
5A-64168

>  <MW_salt>
0

>  <Stereochem.data>
Achiral

>  <Geometric.isomer>
None

>  <Chemical name>
4-ethylphenol

>  <ClogP>
2,503

>  <logS>
-2

>  <HBD>
1

>  <HBA>
1

>  <TPSA>
20,23

>  <RotBonds>
1

$$$$

  Mrv1925 04172511382D          

  9  9  0  0  0  0            999 V2000
    0.5678    1.9393    0.0000 C   0  0  0  0  0  0  0  0  0  0  0  0
    0.5678    1.1143    0.0000 C   0  0  0  0  0  0  0  0  0  0  0  0
    1.2352    0.6294    0.0000 N   0  0  0  0  0  0  0  0  0  0  0  0
    0.9803   -0.1553    0.0000 C   0  0  0  0  0  0  0  0  0  0  0  0
    0.1553   -0.1553    0.0000 S   0  0  0  0  0  0  0  0  0  0  0  0
   -0.0997    0.6294    0.0000 C   0  0  0  0  0  0  0  0  0  0  0  0
   -0.8843    0.8843    0.0000 C   0  0  0  0  0  0  0  0  0  0  0  0
   -1.0558    1.6913    0.0000 C   0  0  0  0  0  0  0  0  0  0  0  0
   -1.8405    1.9462    0.0000 O   0  0  0  0  0  0  0  0  0  0  0  0
  1  2  1  0  0  0  0
  2  3  1  0  0  0  0
  3  4  2  0  0  0  0
  4  5  1  0  0  0  0
  5  6  1  0  0  0  0
  2  6  2  0  0  0  0
  6  7  1  0  0  0  0
  7  8  1  0  0  0  0
  8  9  1  0  0  0  0
M  END
>  <Catalog ID>
Z104477768

>  <Plate_ID>
2026997-X50-04

>  <Well>
E11

>  <V, µL>
50

>  <Conc, mM>
10

>  <Formula>
C6H9NOS

>  <MW>
143.2068

>  <Purity>
100

>  <PO>
5A-64168

>  <MW_salt>
0

>  <Stereochem.data>
Achiral

>  <Geometric.isomer>
None

>  <Chemical name>
2-(4-methyl-1,3-thiazol-5-yl)ethan-1-ol

>  <ClogP>
0,126

>  <logS>
-0,5

>  <HBD>
1

>  <HBA>
2

>  <TPSA>
33,12

>  <RotBonds>
2

$$$$

  Mrv1925 04172511382D          

 13 14  0  0  0  0            999 V2000
    0.0768   -2.3215    0.0000 C   0  0  0  0  0  0  0  0  0  0  0  0
    0.8838   -2.1500    0.0000 C   0  0  0  0  0  0  0  0  0  0  0  0
    1.4358   -2.7631    0.0000 O   0  0  0  0  0  0  0  0  0  0  0  0
    1.1387   -1.3654    0.0000 C   0  0  0  0  0  0  0  0  0  0  0  0
    0.6538   -0.6979    0.0000 C   0  0  0  0  0  0  0  0  0  0  0  0
    1.1387   -0.0305    0.0000 N   0  0  0  0  0  0  0  0  0  0  0  0
    0.8838    0.7541    0.0000 C   0  0  0  0  0  0  0  0  0  0  0  0
    1.9233   -0.2854    0.0000 C   0  0  0  0  0  0  0  0  0  0  0  0
    2.6378    0.1271    0.0000 C   0  0  0  0  0  0  0  0  0  0  0  0
    3.3523   -0.2854    0.0000 C   0  0  0  0  0  0  0  0  0  0  0  0
    3.3523   -1.1104    0.0000 C   0  0  0  0  0  0  0  0  0  0  0  0
    2.6378   -1.5229    0.0000 C   0  0  0  0  0  0  0  0  0  0  0  0
    1.9233   -1.1104    0.0000 C   0  0  0  0  0  0  0  0  0  0  0  0
  1  2  1  0  0  0  0
  2  3  2  0  0  0  0
  2  4  1  0  0  0  0
  4  5  2  0  0  0  0
  5  6  1  0  0  0  0
  6  7  1  0  0  0  0
  6  8  1  0  0  0  0
  8  9  1  0  0  0  0
  9 10  2  0  0  0  0
 10 11  1  0  0  0  0
 11 12  2  0  0  0  0
 12 13  1  0  0  0  0
  4 13  1  0  0  0  0
  8 13  2  0  0  0  0
M  END
>  <Catalog ID>
Z57070074

>  <Plate_ID>
2026997-X50-04

>  <Well>
F11

>  <V, µL>
50

>  <Conc, mM>
10

>  <Formula>
C11H11NO

>  <MW>
173.2111

>  <Purity>
99.56

>  <PO>
5A-64168

>  <MW_salt>
0

>  <Stereochem.data>
Achiral

>  <Geometric.isomer>
None

>  <Chemical name>
1-(1-methyl-1H-indol-3-yl)ethan-1-one

>  <ClogP>
2,22

>  <logS>
-1,82

>  <HBD>
0

>  <HBA>
1

>  <TPSA>
22

>  <RotBonds>
1

$$$$

  Mrv1925 04172511382D          

 12 13  0  0  0  0            999 V2000
   -0.4529   -0.9694    0.0000 O   0  0  0  0  0  0  0  0  0  0  0  0
   -0.0404   -0.2549    0.0000 C   0  0  0  0  0  0  0  0  0  0  0  0
   -0.4529    0.4595    0.0000 O   0  0  0  0  0  0  0  0  0  0  0  0
    0.7846   -0.2549    0.0000 C   0  0  0  0  0  0  0  0  0  0  0  0
    1.2695    0.4125    0.0000 C   0  0  0  0  0  0  0  0  0  0  0  0
    2.0542    0.1576    0.0000 C   0  0  0  0  0  0  0  0  0  0  0  0
    2.8388    0.4125    0.0000 C   0  0  0  0  0  0  0  0  0  0  0  0
    3.3237   -0.2549    0.0000 C   0  0  0  0  0  0  0  0  0  0  0  0
    4.1487   -0.2549    0.0000 Cl  0  0  0  0  0  0  0  0  0  0  0  0
    2.8388   -0.9224    0.0000 S   0  0  0  0  0  0  0  0  0  0  0  0
    2.0542   -0.6674    0.0000 C   0  0  0  0  0  0  0  0  0  0  0  0
    1.2695   -0.9224    0.0000 N   0  0  0  0  0  0  0  0  0  0  0  0
  1  2  2  0  0  0  0
  2  3  1  0  0  0  0
  2  4  1  0  0  0  0
  4  5  2  0  0  0  0
  5  6  1  0  0  0  0
  6  7  1  0  0  0  0
  7  8  2  0  0  0  0
  8  9  1  0  0  0  0
  8 10  1  0  0  0  0
 10 11  1  0  0  0  0
  6 11  2  0  0  0  0
 11 12  1  0  0  0  0
  4 12  1  0  0  0  0
M  END
>  <Catalog ID>
Z1508918230

>  <Plate_ID>
2026997-X50-04

>  <Well>
G11

>  <V, µL>
50

>  <Conc, mM>
10

>  <Formula>
C7H4ClNO2S

>  <MW>
201.6302

>  <Purity>
100

>  <PO>
5A-64168

>  <MW_salt>
0

>  <Stereochem.data>
Achiral

>  <Geometric.isomer>
None

>  <Chemical name>
2-chloro-6H-thieno[2,3-b]pyrrole-5-carboxylic acid

>  <ClogP>
2,611

>  <logS>
-4,3

>  <HBD>
2

>  <HBA>
2

>  <TPSA>
53,09

>  <RotBonds>
1

$$$$

  Mrv1925 04172511382D          

 11 12  0  0  0  0            999 V2000
    0.0000   -1.6500    0.0000 N   0  0  0  0  0  0  0  0  0  0  0  0
    0.7145   -1.2375    0.0000 C   0  0  0  0  0  0  0  0  0  0  0  0
    0.7145   -0.4125    0.0000 C   0  0  0  0  0  0  0  0  0  0  0  0
    1.4289    0.0000    0.0000 C   0  0  0  0  0  0  0  0  0  0  0  0
    2.1434   -0.4125    0.0000 C   0  0  0  0  0  0  0  0  0  0  0  0
    2.8579    0.0000    0.0000 C   0  0  0  0  0  0  0  0  0  0  0  0
    3.5724   -0.4125    0.0000 C   0  0  0  0  0  0  0  0  0  0  0  0
    3.5724   -1.2375    0.0000 C   0  0  0  0  0  0  0  0  0  0  0  0
    2.8579   -1.6500    0.0000 C   0  0  0  0  0  0  0  0  0  0  0  0
    2.1434   -1.2375    0.0000 C   0  0  0  0  0  0  0  0  0  0  0  0
    1.4289   -1.6500    0.0000 N   0  0  0  0  0  0  0  0  0  0  0  0
  1  2  1  0  0  0  0
  2  3  1  0  0  0  0
  3  4  2  0  0  0  0
  4  5  1  0  0  0  0
  5  6  1  0  0  0  0
  6  7  2  0  0  0  0
  7  8  1  0  0  0  0
  8  9  2  0  0  0  0
  9 10  1  0  0  0  0
  5 10  2  0  0  0  0
 10 11  1  0  0  0  0
  2 11  2  0  0  0  0
M  END
>  <Catalog ID>
Z56347237

>  <Plate_ID>
2026997-X50-04

>  <Well>
H11

>  <V, µL>
50

>  <Conc, mM>
10

>  <Formula>
C9H8N2

>  <MW>
144.1732

>  <Purity>
97.38

>  <PO>
5A-64168

>  <MW_salt>
0

>  <Stereochem.data>
Achiral

>  <Geometric.isomer>
None

>  <Chemical name>
quinolin-2-amine

>  <ClogP>
1,702

>  <logS>
-2,39

>  <HBD>
1

>  <HBA>
2

>  <TPSA>
38,91

>  <RotBonds>
0

$$$$
